<?xml version="1.0" encoding="UTF-8"?>
<!-- generated on 2023-05-15 16:33:48.543084 by $Id$ v1_8_0+0044-4820708f3d
  options: -n erlangen.net.xml -r erlangen.rou.xml -p 0.175 <doubleminus>binomial 10 -L -b 0 -e 2000
-->
<routes xmlns:xsi="http://www.w3.org/2001/XMLSchema-instance" xsi:noNamespaceSchemaLocation="http://sumo.dlr.de/xsd/routes_file.xsd">
    <trip id="0" depart="0.00" from="242758174#4" to="142321461#2"/>
    <trip id="1" depart="0.00" from="266577945#1" to="-246438216#2"/>
    <trip id="2" depart="0.00" from="28296475#1" to="-245402047#1"/>
    <trip id="3" depart="0.00" from="335518664#3" to="290629737"/>
    <trip id="4" depart="0.00" from="334281568#3" to="550169266#0-AddedOnRampEdge"/>
    <trip id="5" depart="0.00" from="550169263" to="39820421#3"/>
    <trip id="6" depart="1.00" from="-59140306#2" to="763969668#1-AddedOnRampEdge"/>
    <trip id="7" depart="1.00" from="-335513835" to="-367068457"/>
    <trip id="8" depart="1.00" from="768088171-AddedOnRampEdge" to="263739437#0-AddedOffRampEdge"/>
    <trip id="9" depart="1.00" from="55682683#3" to="334971116"/>
    <trip id="10" depart="2.00" from="142321460#4" to="246573547#0"/>
    <trip id="11" depart="2.00" from="142321461#6" to="-382975417#1"/>
    <trip id="12" depart="2.00" from="335513835" to="259866070"/>
    <trip id="13" depart="2.00" from="1135556176#1" to="242760070"/>
    <trip id="14" depart="2.00" from="447556686" to="-59140341#1"/>
    <trip id="15" depart="2.00" from="969449155#0" to="335518636#3"/>
    <trip id="16" depart="3.00" from="337335334#0" to="59128864#4"/>
    <trip id="17" depart="3.00" from="-246438218#0" to="257224673#10"/>
    <trip id="18" depart="3.00" from="142320581#3" to="763969653"/>
    <trip id="19" depart="3.00" from="335525201#0-AddedOffRampEdge" to="263770802"/>
    <trip id="20" depart="3.00" from="235000070#0" to="187184121#0"/>
    <trip id="21" depart="3.00" from="216639727#2" to="334281568#2"/>
    <trip id="22" depart="4.00" from="142321459#1" to="970788138"/>
    <trip id="23" depart="4.00" from="-296143790#1" to="-246573563#3"/>
    <trip id="24" depart="4.00" from="334971119#0" to="48795850#1"/>
    <trip id="25" depart="4.00" from="-258248759" to="263739438#1"/>
    <trip id="26" depart="4.00" from="768088171" to="59140301#8"/>
    <trip id="27" depart="4.00" from="447556677#0" to="337335334#1"/>
    <trip id="28" depart="4.00" from="235000070#1" to="335518637#0"/>
    <trip id="29" depart="4.00" from="266957160#10" to="267404279"/>
    <trip id="30" depart="5.00" from="28276817#0-AddedOffRampEdge" to="-59868408#2"/>
    <trip id="31" depart="5.00" from="335518635#0" to="334797274#1"/>
    <trip id="32" depart="5.00" from="457983497#1" to="287208890#1-AddedOnRampEdge"/>
    <trip id="33" depart="5.00" from="-142320581#1" to="258081758#1"/>
    <trip id="34" depart="5.00" from="763969632#0" to="59140336#13"/>
    <trip id="35" depart="6.00" from="-257224675" to="59140336#0"/>
    <trip id="36" depart="6.00" from="28258942#4" to="-263309130"/>
    <trip id="37" depart="6.00" from="277672363#3" to="290629741#3"/>
    <trip id="38" depart="6.00" from="59140317#0" to="266795179#3"/>
    <trip id="39" depart="6.00" from="287208890#1" to="449218910#0"/>
    <trip id="40" depart="6.00" from="246573568#4" to="969449155#8"/>
    <trip id="41" depart="7.00" from="28358447#2" to="-457983493#0"/>
    <trip id="42" depart="7.00" from="258081766" to="334281570"/>
    <trip id="43" depart="7.00" from="142321459#3" to="-267404269#0"/>
    <trip id="44" depart="7.00" from="59868410#1" to="59140301#4"/>
    <trip id="45" depart="7.00" from="142324643#2" to="337129679#2"/>
    <trip id="46" depart="7.00" from="-516364636#2" to="763969643#1"/>
    <trip id="47" depart="7.00" from="277672363#1" to="463727055#1"/>
    <trip id="48" depart="7.00" from="-337129679#1" to="266957160#15"/>
    <trip id="49" depart="8.00" from="277555004#2" to="447735852#3"/>
    <trip id="50" depart="8.00" from="263770802" to="258248759"/>
    <trip id="51" depart="8.00" from="-59868419#1" to="267404267#2"/>
    <trip id="52" depart="8.00" from="245283760" to="216639725"/>
    <trip id="53" depart="8.00" from="59140304" to="290629741#3"/>
    <trip id="54" depart="8.00" from="972635870#1" to="573113634"/>
    <trip id="55" depart="9.00" from="28258942#3" to="142321459#4"/>
    <trip id="56" depart="9.00" from="-258081755#0" to="263739437#0-AddedOffRampEdge"/>
    <trip id="57" depart="9.00" from="463727052#5" to="267404280"/>
    <trip id="58" depart="9.00" from="763969668#1-AddedOnRampEdge" to="969449155#8"/>
    <trip id="59" depart="9.00" from="447554166" to="-59140315#1"/>
    <trip id="60" depart="9.00" from="768088169#3" to="333404264#0"/>
    <trip id="61" depart="10.00" from="457308489#1" to="-257224675"/>
    <trip id="62" depart="10.00" from="59140295#5" to="-59140317#2"/>
    <trip id="63" depart="10.00" from="-59868408#2" to="334283252#1"/>
    <trip id="64" depart="10.00" from="-447556690" to="59140345#5"/>
    <trip id="65" depart="10.00" from="334281912#1" to="334971117#0"/>
    <trip id="66" depart="10.00" from="333404264#1" to="28358459#1-AddedOnRampEdge"/>
    <trip id="67" depart="11.00" from="446811776" to="181355868#0"/>
    <trip id="68" depart="11.00" from="337129678#0" to="246573564#2"/>
    <trip id="69" depart="11.00" from="457983484#1" to="-267404269#2"/>
    <trip id="70" depart="11.00" from="970794154" to="969449155#8"/>
    <trip id="71" depart="11.00" from="142321458#0" to="242758174#1"/>
    <trip id="72" depart="11.00" from="-59140308#4" to="568082463"/>
    <trip id="73" depart="12.00" from="550169268#1" to="246573564#1"/>
    <trip id="74" depart="12.00" from="-40541074#9" to="-40541061#0"/>
    <trip id="75" depart="12.00" from="242757822#1" to="334797271#1"/>
    <trip id="76" depart="12.00" from="334971122#1-AddedOnRampEdge" to="242757827#1"/>
    <trip id="77" depart="13.00" from="59868410#0" to="59128886#1"/>
    <trip id="78" depart="13.00" from="266577945#6" to="245402047#3"/>
    <trip id="79" depart="13.00" from="457984513#0" to="335518636#0-AddedOffRampEdge"/>
    <trip id="80" depart="13.00" from="457307898#0" to="290629742#0"/>
    <trip id="81" depart="13.00" from="-187184121#0" to="-277555004#12"/>
    <trip id="82" depart="13.00" from="59128839#0" to="333418727"/>
    <trip id="83" depart="13.00" from="-457307902#1" to="254489533#3"/>
    <trip id="84" depart="14.00" from="181355868#8" to="-39820414#0"/>
    <trip id="85" depart="14.00" from="334971115" to="-59140315#1"/>
    <trip id="86" depart="15.00" from="457035236#0" to="258248018#0"/>
    <trip id="87" depart="15.00" from="463727056#0" to="-40541062#2"/>
    <trip id="88" depart="16.00" from="550169268#1" to="277555003#0"/>
    <trip id="89" depart="16.00" from="48795850#3" to="142324640#3"/>
    <trip id="90" depart="16.00" from="-59868430#2" to="258081766"/>
    <trip id="91" depart="16.00" from="335518636#0" to="263773395#1-AddedOnRampEdge"/>
    <trip id="92" depart="16.00" from="763969648#0" to="-449218910#1"/>
    <trip id="93" depart="16.00" from="768088165#3" to="242758174#3"/>
    <trip id="94" depart="17.00" from="266957160#10" to="447735852#1"/>
    <trip id="95" depart="17.00" from="334797268#0" to="28358446"/>
    <trip id="96" depart="17.00" from="333404259#0" to="216639727#2"/>
    <trip id="97" depart="17.00" from="59868471#0" to="287208890#1-AddedOnRampEdge"/>
    <trip id="98" depart="17.00" from="-259866071#0" to="337129677#1"/>
    <trip id="99" depart="17.00" from="246573570#0" to="59140288#1"/>
    <trip id="100" depart="18.00" from="246573564#3" to="264110604"/>
    <trip id="101" depart="18.00" from="246573542#3" to="-55682682#3"/>
    <trip id="102" depart="18.00" from="763969648#1" to="337335333#1"/>
    <trip id="103" depart="18.00" from="290629738" to="-142320581#1"/>
    <trip id="104" depart="18.00" from="266795179#5" to="333404264#0"/>
    <trip id="105" depart="18.00" from="266957517" to="142321459#4"/>
    <trip id="106" depart="19.00" from="59868404#0" to="48795850#5"/>
    <trip id="107" depart="19.00" from="-28258956#2" to="28358447#2"/>
    <trip id="108" depart="19.00" from="550169271#0" to="457983489"/>
    <trip id="109" depart="19.00" from="-59868447#1" to="-245284593#4"/>
    <trip id="110" depart="19.00" from="277672363#3" to="59140292"/>
    <trip id="111" depart="19.00" from="263859123#1" to="334971122#1-AddedOnRampEdge"/>
    <trip id="112" depart="19.00" from="382975415#0" to="28276810#1-AddedOnRampEdge"/>
    <trip id="113" depart="19.00" from="335525201#0-AddedOffRampEdge" to="-181454361"/>
    <trip id="114" depart="20.00" from="266581130#0" to="-59868404#4"/>
    <trip id="115" depart="20.00" from="-246573565" to="212737649#2"/>
    <trip id="116" depart="20.00" from="516364636#2" to="337129679#1"/>
    <trip id="117" depart="21.00" from="55683011#3" to="290629741#0-AddedOffRampEdge"/>
    <trip id="118" depart="21.00" from="216639727#0" to="187184132#0"/>
    <trip id="119" depart="21.00" from="334971118#0" to="245284593#4"/>
    <trip id="120" depart="22.00" from="245402047#3" to="245283772#0"/>
    <trip id="121" depart="22.00" from="287208890#1" to="-59140287#6"/>
    <trip id="122" depart="22.00" from="382974138" to="40541074#6"/>
    <trip id="123" depart="22.00" from="263773399-AddedOffRampEdge" to="287208894#3"/>
    <trip id="124" depart="22.00" from="-644293986#2" to="266795172#1"/>
    <trip id="125" depart="23.00" from="-181454360" to="259866067#2"/>
    <trip id="126" depart="23.00" from="457308489#0" to="290629738"/>
    <trip id="127" depart="23.00" from="142321459#1" to="266957515#1"/>
    <trip id="128" depart="23.00" from="258081763#1" to="337335334#0"/>
    <trip id="129" depart="23.00" from="-59140317#2" to="277672353#5"/>
    <trip id="130" depart="23.00" from="334971117#0" to="-245402047#3"/>
    <trip id="131" depart="24.00" from="295967308#0-AddedOffRampEdge" to="-245402047#3"/>
    <trip id="132" depart="24.00" from="267598524#0" to="-246573568#2"/>
    <trip id="133" depart="24.00" from="142321169#0" to="258081763#1"/>
    <trip id="134" depart="24.00" from="457983484#1" to="55683011#3"/>
    <trip id="135" depart="24.00" from="-277672353#7" to="-245153375"/>
    <trip id="136" depart="24.00" from="988677957" to="259866067#10"/>
    <trip id="137" depart="25.00" from="-242758175#1" to="-59140312#3"/>
    <trip id="138" depart="25.00" from="337129677#2" to="295967308#1"/>
    <trip id="139" depart="25.00" from="382975419" to="457984365#1"/>
    <trip id="140" depart="25.00" from="334797270#0" to="457983479#1"/>
    <trip id="141" depart="25.00" from="550169272" to="768088166"/>
    <trip id="142" depart="25.00" from="-245284593#3" to="254607358#1"/>
    <trip id="143" depart="26.00" from="446811231#0" to="-277555004#13"/>
    <trip id="144" depart="26.00" from="460338573" to="59140293#0"/>
    <trip id="145" depart="26.00" from="783999519#3" to="463727052#4"/>
    <trip id="146" depart="26.00" from="266795179#11" to="263309131#1"/>
    <trip id="147" depart="26.00" from="258248017#1" to="59140292"/>
    <trip id="148" depart="27.00" from="768088159" to="335518636#0"/>
    <trip id="149" depart="27.00" from="449218910#0" to="768088169#0"/>
    <trip id="150" depart="27.00" from="550169265" to="287208890#1-AddedOnRampEdge"/>
    <trip id="151" depart="27.00" from="266957160#11" to="456114496"/>
    <trip id="152" depart="27.00" from="59140295#3" to="55682683#3"/>
    <trip id="153" depart="27.00" from="59140337#8" to="181454362#0"/>
    <trip id="154" depart="27.00" from="334797274#0" to="263739437#0-AddedOffRampEdge"/>
    <trip id="155" depart="27.00" from="59140295#0" to="-59868413#1"/>
    <trip id="156" depart="28.00" from="48795850#7" to="258742298"/>
    <trip id="157" depart="28.00" from="-187184132#0" to="763969664#1-AddedOnRampEdge"/>
    <trip id="158" depart="28.00" from="447556655" to="28258957"/>
    <trip id="159" depart="28.00" from="47848569" to="-337129677#6"/>
    <trip id="160" depart="28.00" from="380914194#0" to="254489533#0"/>
    <trip id="161" depart="29.00" from="28484384#1" to="266795179#9"/>
    <trip id="162" depart="29.00" from="39820421#2" to="245283769#0"/>
    <trip id="163" depart="29.00" from="-449218910#0" to="-59868448#0"/>
    <trip id="164" depart="29.00" from="28484384#8" to="457984363-AddedOffRampEdge"/>
    <trip id="165" depart="29.00" from="142321458#4" to="28258942#4"/>
    <trip id="166" depart="29.00" from="245284593#2" to="-382975417#0"/>
    <trip id="167" depart="30.00" from="142321460#4" to="-59868410#0"/>
    <trip id="168" depart="30.00" from="28484384#6" to="245284593#4"/>
    <trip id="169" depart="30.00" from="382975415#4" to="-533483260#1"/>
    <trip id="170" depart="30.00" from="59140317#1" to="333403966"/>
    <trip id="171" depart="30.00" from="266957160#9" to="-59868421#1"/>
    <trip id="172" depart="30.00" from="763969648#1" to="28258922#1"/>
    <trip id="173" depart="30.00" from="-267404269#1" to="334971122#1-AddedOffRampEdge"/>
    <trip id="174" depart="31.00" from="-59140295#4" to="295967308#0-AddedOffRampEdge"/>
    <trip id="175" depart="31.00" from="969449155#5" to="-457035247"/>
    <trip id="176" depart="31.00" from="28358459#0" to="267404274"/>
    <trip id="177" depart="31.00" from="59140302#3" to="969449155#0"/>
    <trip id="178" depart="31.00" from="334971115" to="334970224#0"/>
    <trip id="179" depart="32.00" from="142320581#3" to="335527357#0"/>
    <trip id="180" depart="32.00" from="-59140345#1" to="-277555004#10"/>
    <trip id="181" depart="32.00" from="266995291-AddedOnRampEdge" to="334283250#2"/>
    <trip id="182" depart="32.00" from="142321461#6" to="421297221"/>
    <trip id="183" depart="32.00" from="337335336-AddedOffRampEdge" to="59868467#0"/>
    <trip id="184" depart="33.00" from="287208894#1-AddedOffRampEdge" to="335523979"/>
    <trip id="185" depart="33.00" from="-59140336#10" to="254489533#2"/>
    <trip id="186" depart="33.00" from="246438216#2" to="-516364636#1"/>
    <trip id="187" depart="33.00" from="28276810#1" to="-28258956#0"/>
    <trip id="188" depart="34.00" from="266957160#0" to="257224674#2"/>
    <trip id="189" depart="34.00" from="-334970223" to="768088159"/>
    <trip id="190" depart="34.00" from="-246573547#4" to="457983491"/>
    <trip id="191" depart="34.00" from="335518665" to="59868440#1"/>
    <trip id="192" depart="34.00" from="333418727" to="335518635#0"/>
    <trip id="193" depart="35.00" from="-334970223" to="259866067#1"/>
    <trip id="194" depart="35.00" from="337129677#4" to="59140300#0"/>
    <trip id="195" depart="35.00" from="382974137#3" to="246573544#1"/>
    <trip id="196" depart="35.00" from="267404272" to="257224673#1"/>
    <trip id="197" depart="35.00" from="768088171" to="263776787#1"/>
    <trip id="198" depart="35.00" from="89567410#3" to="335527353#0"/>
    <trip id="199" depart="35.00" from="263859123#0" to="-59868433#1"/>
    <trip id="200" depart="35.00" from="457983491" to="334971120-AddedOffRampEdge"/>
    <trip id="201" depart="36.00" from="290629741#0" to="644293986#0"/>
    <trip id="202" depart="36.00" from="382975417#1" to="-457983493#1"/>
    <trip id="203" depart="36.00" from="-59140311#0" to="290629741#4"/>
    <trip id="204" depart="36.00" from="-337129677#0" to="969449155#3"/>
    <trip id="205" depart="36.00" from="-438980755" to="55683011#4"/>
    <trip id="206" depart="36.00" from="447288731#0" to="28296475#8-AddedOffRampEdge"/>
    <trip id="207" depart="37.00" from="59128839#0" to="768088177#1"/>
    <trip id="208" depart="37.00" from="290629741#2" to="263739438#1-AddedOnRampEdge"/>
    <trip id="209" depart="37.00" from="59140336#6" to="59140305#0"/>
    <trip id="210" depart="37.00" from="463861619#1" to="264116891#1"/>
    <trip id="211" depart="37.00" from="550169272" to="246438219"/>
    <trip id="212" depart="37.00" from="334281568#0" to="972635870#0"/>
    <trip id="213" depart="37.00" from="-59140295#3" to="287208890#1-AddedOnRampEdge"/>
    <trip id="214" depart="37.00" from="290629741#3" to="288774524#1"/>
    <trip id="215" depart="38.00" from="254607358#1" to="-59868434#6"/>
    <trip id="216" depart="38.00" from="460338573-AddedOnRampEdge" to="-246573554"/>
    <trip id="217" depart="38.00" from="335527355" to="550169272"/>
    <trip id="218" depart="38.00" from="-246573542#4" to="28296475#0"/>
    <trip id="219" depart="39.00" from="28358460" to="267598519"/>
    <trip id="220" depart="39.00" from="335525201#0" to="-59140315#0"/>
    <trip id="221" depart="39.00" from="768088169#3" to="258248756"/>
    <trip id="222" depart="40.00" from="254489533#0" to="447556677#2"/>
    <trip id="223" depart="40.00" from="-259866068#3" to="334971123"/>
    <trip id="224" depart="40.00" from="-337129679#3" to="335518635#0"/>
    <trip id="225" depart="41.00" from="382974138" to="59868408#0"/>
    <trip id="226" depart="41.00" from="48795850#4" to="246573552"/>
    <trip id="227" depart="41.00" from="-59140287#3" to="28484384#6"/>
    <trip id="228" depart="41.00" from="47848569" to="-59140354#2"/>
    <trip id="229" depart="41.00" from="59140315#1" to="334971117#0"/>
    <trip id="230" depart="41.00" from="59868430#4" to="-59140296#2"/>
    <trip id="231" depart="41.00" from="182030174" to="216639733#1"/>
    <trip id="232" depart="41.00" from="550169262#3" to="59868404#4"/>
    <trip id="233" depart="42.00" from="266957513" to="259864874"/>
    <trip id="234" depart="42.00" from="181357564#0" to="59128881#2"/>
    <trip id="235" depart="42.00" from="263309131#4" to="28258942#3"/>
    <trip id="236" depart="42.00" from="333403957" to="333404259#0"/>
    <trip id="237" depart="42.00" from="768088177#0-AddedOnRampEdge" to="335527353#1"/>
    <trip id="238" depart="42.00" from="295967308#2" to="37587463"/>
    <trip id="239" depart="43.00" from="334797268#0" to="28276817#0"/>
    <trip id="240" depart="43.00" from="48795850#8" to="334797274#0"/>
    <trip id="241" depart="43.00" from="335518631#0" to="334971117#1"/>
    <trip id="242" depart="44.00" from="266957160#9" to="333404264#0"/>
    <trip id="243" depart="44.00" from="246573542#0" to="457983477#2"/>
    <trip id="244" depart="44.00" from="-516364636#1" to="287208890#1-AddedOnRampEdge"/>
    <trip id="245" depart="44.00" from="59868433#0" to="55682683#1"/>
    <trip id="246" depart="44.00" from="550170013" to="28258942#2"/>
    <trip id="247" depart="45.00" from="-40541074#5" to="768088161"/>
    <trip id="248" depart="45.00" from="768088169#1" to="59140301#7"/>
    <trip id="249" depart="45.00" from="475011613" to="-235266559"/>
    <trip id="250" depart="45.00" from="267404272" to="337335331#2"/>
    <trip id="251" depart="46.00" from="142321461#7" to="-245284595"/>
    <trip id="252" depart="46.00" from="59868435" to="142321461#1"/>
    <trip id="253" depart="46.00" from="550169273#3" to="59868422#1"/>
    <trip id="254" depart="46.00" from="263774000" to="-59140292"/>
    <trip id="255" depart="46.00" from="28275325#1" to="-367068460"/>
    <trip id="256" depart="47.00" from="267161908" to="337129682#0"/>
    <trip id="257" depart="47.00" from="457307898#1" to="-59140315#0"/>
    <trip id="258" depart="47.00" from="-337335340" to="28275325#0"/>
    <trip id="259" depart="47.00" from="763969666#0" to="-246438221#0"/>
    <trip id="260" depart="47.00" from="266957517" to="763969664#1-AddedOnRampEdge"/>
    <trip id="261" depart="47.00" from="337335334#1" to="288774524#3"/>
    <trip id="262" depart="48.00" from="263770042" to="-59868440#1"/>
    <trip id="263" depart="48.00" from="59140293#0" to="267404280"/>
    <trip id="264" depart="48.00" from="463727055#2" to="181454362#0"/>
    <trip id="265" depart="48.00" from="295967308#0-AddedOffRampEdge" to="-263095746#2"/>
    <trip id="266" depart="48.00" from="142321458#4" to="59140312#0"/>
    <trip id="267" depart="48.00" from="-59140292" to="59868404#0"/>
    <trip id="268" depart="49.00" from="59140301#7" to="-59140302#2"/>
    <trip id="269" depart="49.00" from="181403005" to="-59868397#1"/>
    <trip id="270" depart="49.00" from="-235266560#2" to="47848566#2"/>
    <trip id="271" depart="49.00" from="257224673#1" to="-59140356#2"/>
    <trip id="272" depart="49.00" from="457307898#1" to="28461931#2"/>
    <trip id="273" depart="49.00" from="463727050" to="28358447#0"/>
    <trip id="274" depart="49.00" from="28296471#0" to="763969664#0"/>
    <trip id="275" depart="49.00" from="463727052#4" to="59140308#3"/>
    <trip id="276" depart="50.00" from="267404277" to="768088165#3"/>
    <trip id="277" depart="50.00" from="28258007#4" to="263774000"/>
    <trip id="278" depart="50.00" from="59868419#2" to="-277555003#1"/>
    <trip id="279" depart="50.00" from="334797271#0" to="-259866068#3"/>
    <trip id="280" depart="50.00" from="334971122#1-AddedOffRampEdge" to="290629741#0-AddedOffRampEdge"/>
    <trip id="281" depart="50.00" from="969449155#6" to="28484384#4"/>
    <trip id="282" depart="50.00" from="334797267" to="-382975415#2"/>
    <trip id="283" depart="51.00" from="266995292#0" to="142324640#5"/>
    <trip id="284" depart="51.00" from="267161908" to="266577945#2"/>
    <trip id="285" depart="51.00" from="266795172#1" to="337129677#4"/>
    <trip id="286" depart="51.00" from="-59140302#5" to="59868466#1"/>
    <trip id="287" depart="51.00" from="55683011#7" to="-337129677#6"/>
    <trip id="288" depart="51.00" from="457035253" to="550169266#1"/>
    <trip id="289" depart="51.00" from="334281568#0" to="295967307#0"/>
    <trip id="290" depart="52.00" from="-457035236#1" to="259866067#4"/>
    <trip id="291" depart="52.00" from="333404260#0" to="142321459#3"/>
    <trip id="292" depart="52.00" from="-39820421#1" to="59128881#2"/>
    <trip id="293" depart="53.00" from="457984362#1" to="333403966"/>
    <trip id="294" depart="53.00" from="763969632#0" to="55682682#2"/>
    <trip id="295" depart="53.00" from="-59140355#4" to="40541063#4"/>
    <trip id="296" depart="53.00" from="258081769#1" to="-181454362#2"/>
    <trip id="297" depart="54.00" from="263770046" to="-59140295#5"/>
    <trip id="298" depart="54.00" from="457308487#0" to="142321459#4"/>
    <trip id="299" depart="54.00" from="258248017#0" to="263309131#0"/>
    <trip id="300" depart="54.00" from="-28258956#4" to="-246573569#5"/>
    <trip id="301" depart="54.00" from="334971109#1" to="337335331#4"/>
    <trip id="302" depart="54.00" from="335527353#0" to="28258956#0"/>
    <trip id="303" depart="55.00" from="242757827#2" to="457983491"/>
    <trip id="304" depart="55.00" from="266795179#5" to="246438220"/>
    <trip id="305" depart="55.00" from="335527357#3" to="-246573559"/>
    <trip id="306" depart="55.00" from="334283252#2" to="-182030998"/>
    <trip id="307" depart="55.00" from="142320595" to="-59128864#8"/>
    <trip id="308" depart="55.00" from="257224673#5" to="-182030998"/>
    <trip id="309" depart="55.00" from="263309131#2" to="40541063#6"/>
    <trip id="310" depart="55.00" from="568086391" to="550169264"/>
    <trip id="311" depart="56.00" from="59140305#0" to="-246573549#2"/>
    <trip id="312" depart="56.00" from="59868453" to="59140302#3"/>
    <trip id="313" depart="56.00" from="-40541074#5" to="-245283766#0"/>
    <trip id="314" depart="56.00" from="516364636#1" to="334971116"/>
    <trip id="315" depart="56.00" from="59140287#1" to="181454361"/>
    <trip id="316" depart="57.00" from="263739440#0-AddedOffRampEdge" to="254607358#0"/>
    <trip id="317" depart="57.00" from="258081754" to="-59140345#6"/>
    <trip id="318" depart="57.00" from="-40541070#3" to="28358444"/>
    <trip id="319" depart="57.00" from="447556683#2" to="550169271#2"/>
    <trip id="320" depart="57.00" from="-59140290#1" to="-59868471#0"/>
    <trip id="321" depart="58.00" from="460338573" to="28276810#1-AddedOnRampEdge"/>
    <trip id="322" depart="58.00" from="59868467#0" to="295967308#2"/>
    <trip id="323" depart="58.00" from="-259866068#2" to="266995291"/>
    <trip id="324" depart="59.00" from="242758174#3" to="-257224674#1"/>
    <trip id="325" depart="59.00" from="246573568#1" to="267404275"/>
    <trip id="326" depart="59.00" from="55683011#5" to="-277555004#3"/>
    <trip id="327" depart="59.00" from="272525418" to="290629748"/>
    <trip id="328" depart="59.00" from="550169266#0" to="335525201#0-AddedOnRampEdge"/>
    <trip id="329" depart="60.00" from="277672363#5" to="-59140309#1"/>
    <trip id="330" depart="60.00" from="-382975415#4" to="59140356#1"/>
    <trip id="331" depart="60.00" from="446031379" to="28296475#11"/>
    <trip id="332" depart="60.00" from="181355868#11" to="266957519"/>
    <trip id="333" depart="60.00" from="28358459#0" to="-59140335"/>
    <trip id="334" depart="60.00" from="245284593#2" to="264110607"/>
    <trip id="335" depart="60.00" from="334283251" to="47848566#0"/>
    <trip id="336" depart="60.00" from="-337129677#3" to="337335333#2"/>
    <trip id="337" depart="60.00" from="447556682" to="335527350"/>
    <trip id="338" depart="61.00" from="333404264#0" to="-59140295#4"/>
    <trip id="339" depart="61.00" from="768088169#2" to="400213936#0"/>
    <trip id="340" depart="61.00" from="334281912#1" to="763969648#0"/>
    <trip id="341" depart="61.00" from="263309131#0" to="485129232"/>
    <trip id="342" depart="62.00" from="335518637#0" to="266795179#4"/>
    <trip id="343" depart="62.00" from="259866067#4" to="-59868410#2"/>
    <trip id="344" depart="62.00" from="763969664#1" to="28258956#1"/>
    <trip id="345" depart="62.00" from="-55683011#4" to="-277555004#4"/>
    <trip id="346" depart="62.00" from="457984513#0" to="568945049#0"/>
    <trip id="347" depart="62.00" from="258081763#1" to="457984365#0-AddedOnRampEdge"/>
    <trip id="348" depart="62.00" from="263309131#0" to="-59140340#2"/>
    <trip id="349" depart="63.00" from="266957160#15" to="264116885"/>
    <trip id="350" depart="63.00" from="266957519" to="246438224#0"/>
    <trip id="351" depart="63.00" from="28484384#6" to="254489534"/>
    <trip id="352" depart="63.00" from="59128839#1" to="263309128"/>
    <trip id="353" depart="64.00" from="245283774#2" to="263739438#1"/>
    <trip id="354" depart="64.00" from="768088169#1" to="550169269"/>
    <trip id="355" depart="64.00" from="181357564#0" to="335518637#0"/>
    <trip id="356" depart="64.00" from="-382975415#2" to="59128886#1"/>
    <trip id="357" depart="64.00" from="457984362#1" to="245283774#2"/>
    <trip id="358" depart="65.00" from="266957160#15" to="763969664#0"/>
    <trip id="359" depart="65.00" from="266995292#0" to="259866067#10"/>
    <trip id="360" depart="65.00" from="-246573569#0" to="28276817#2"/>
    <trip id="361" depart="65.00" from="969449155#6" to="263309131#3"/>
    <trip id="362" depart="65.00" from="763969632#2" to="59128842#2"/>
    <trip id="363" depart="65.00" from="245402049#2" to="55682682#4"/>
    <trip id="364" depart="66.00" from="40541062#2" to="267404267#2"/>
    <trip id="365" depart="66.00" from="-277555004#3" to="235000070#1"/>
    <trip id="366" depart="66.00" from="447556683#2" to="28484384#1"/>
    <trip id="367" depart="66.00" from="246438216#0" to="246573568#0"/>
    <trip id="368" depart="66.00" from="264116889#0" to="48795850#3"/>
    <trip id="369" depart="66.00" from="-40541061#2" to="59868410#1"/>
    <trip id="370" depart="66.00" from="28358447#1" to="181403006"/>
    <trip id="371" depart="66.00" from="266795179#4" to="334971110#0"/>
    <trip id="372" depart="67.00" from="264110604" to="337129677#2"/>
    <trip id="373" depart="67.00" from="768088177#0" to="-259866074#1"/>
    <trip id="374" depart="67.00" from="28296475#12" to="89567410#3"/>
    <trip id="375" depart="67.00" from="263739438#1-AddedOnRampEdge" to="277672363#2"/>
    <trip id="376" depart="67.00" from="-242757647#1" to="463861619#1"/>
    <trip id="377" depart="67.00" from="447735852#2" to="334971122#1-AddedOffRampEdge"/>
    <trip id="378" depart="68.00" from="-246573553#0" to="290629737"/>
    <trip id="379" depart="68.00" from="463727052#1" to="277555004#9"/>
    <trip id="380" depart="68.00" from="460338573-AddedOnRampEdge" to="267598524#0"/>
    <trip id="381" depart="68.00" from="-246573552" to="-644293986#1"/>
    <trip id="382" depart="68.00" from="763969641" to="28358447#2"/>
    <trip id="383" depart="69.00" from="181454362#4" to="457983490#1"/>
    <trip id="384" depart="69.00" from="259866067#1" to="463727052#2"/>
    <trip id="385" depart="69.00" from="-457035239" to="263309128"/>
    <trip id="386" depart="69.00" from="768088176" to="28276810#2"/>
    <trip id="387" depart="69.00" from="59868467#0" to="28358447#4"/>
    <trip id="388" depart="70.00" from="334283253#1" to="550169273#0"/>
    <trip id="389" depart="70.00" from="254607358#1" to="-277672353#9"/>
    <trip id="390" depart="70.00" from="334283253#1" to="266957160#0"/>
    <trip id="391" depart="70.00" from="-246573548#2" to="59140312#2"/>
    <trip id="392" depart="70.00" from="970794154" to="245284593#4"/>
    <trip id="393" depart="71.00" from="335518631#2" to="259866068#1"/>
    <trip id="394" depart="71.00" from="334797270#0" to="463727052#4"/>
    <trip id="395" depart="71.00" from="-259864876#1" to="463727052#1"/>
    <trip id="396" depart="71.00" from="263309131#3" to="333403953"/>
    <trip id="397" depart="72.00" from="457984362#1" to="333403966"/>
    <trip id="398" depart="72.00" from="263739441" to="335525201#0"/>
    <trip id="399" depart="72.00" from="-40541065#2" to="457035247"/>
    <trip id="400" depart="72.00" from="263739437#0-AddedOffRampEdge" to="295967307#0"/>
    <trip id="401" depart="72.00" from="216639727#1" to="266995292#1"/>
    <trip id="402" depart="72.00" from="59868440#0" to="28276810#0"/>
    <trip id="403" depart="72.00" from="59140296#0" to="267404275"/>
    <trip id="404" depart="72.00" from="-288774524#4" to="337335334#1"/>
    <trip id="405" depart="73.00" from="258248754" to="-259866066"/>
    <trip id="406" depart="73.00" from="59140349#0" to="59140294#0"/>
    <trip id="407" depart="73.00" from="-456638608#1" to="-783999519#3"/>