<?xml version="1.0" encoding="UTF-8"?>

<!-- generated on 12/19/22 13:50:39 by Eclipse SUMO netedit Version 1.8.0
<configuration xmlns:xsi="http://www.w3.org/2001/XMLSchema-instance" xsi:noNamespaceSchemaLocation="http://sumo.dlr.de/xsd/netconvertConfiguration.xsd">

    <output>
        <output-file value="D:\Application\Veins_OMNeTpp_SUMO\test_2\test_2.net.xml"/>
    </output>

    <processing>
        <offset.disable-normalization value="true"/>
    </processing>

    <junctions>
        <no-turnarounds value="true"/>
    </junctions>

    <report>
        <aggregate-warnings value="5"/>
    </report>

</configuration>
-->

<net version="1.6" junctionCornerDetail="5" limitTurnSpeed="5.50" xmlns:xsi="http://www.w3.org/2001/XMLSchema-instance" xsi:noNamespaceSchemaLocation="http://sumo.dlr.de/xsd/net_file.xsd">

    <location netOffset="0.00,0.00" convBoundary="0.00,0.00,15000.00,15000.00" origBoundary="10000000000.00,10000000000.00,-10000000000.00,-10000000000.00" projParameter="!"/>

    <edge id=":cro4_0" function="internal">
        <lane id=":cro4_0_0" index="0" speed="6.51" length="9.03" shape="4992.00,5013.60 4991.65,5011.15 4990.60,5009.40 4988.85,5008.35 4986.40,5008.00"/>
    </edge>
    <edge id=":cro4_1" function="internal">
        <lane id=":cro4_1_0" index="0" speed="13.89" length="27.20" shape="4992.00,5013.60 4992.00,4986.40"/>
        <lane id=":cro4_1_1" index="1" speed="13.89" length="27.20" shape="4995.20,5013.60 4995.20,4986.40"/>
        <lane id=":cro4_1_2" index="2" speed="13.89" length="27.20" shape="4998.40,5013.60 4998.40,4986.40"/>
    </edge>
    <edge id=":cro4_4" function="internal">
        <lane id=":cro4_4_0" index="0" speed="10.36" length="7.98" shape="4998.40,5013.60 4999.35,5006.95 5000.00,5005.87"/>
    </edge>
    <edge id=":cro4_20" function="internal">
        <lane id=":cro4_20_0" index="0" speed="10.36" length="16.53" shape="5000.00,5005.87 5002.20,5002.20 5006.95,4999.35 5013.60,4998.40"/>
    </edge>
    <edge id=":cro4_5" function="internal">
        <lane id=":cro4_5_0" index="0" speed="6.51" length="9.03" shape="5013.60,5008.00 5011.15,5008.35 5009.40,5009.40 5008.35,5011.15 5008.00,5013.60"/>
    </edge>
    <edge id=":cro4_6" function="internal">
        <lane id=":cro4_6_0" index="0" speed="13.89" length="27.20" shape="5013.60,5008.00 4986.40,5008.00"/>
        <lane id=":cro4_6_1" index="1" speed="13.89" length="27.20" shape="5013.60,5004.80 4986.40,5004.80"/>
        <lane id=":cro4_6_2" index="2" speed="13.89" length="27.20" shape="5013.60,5001.60 4986.40,5001.60"/>
    </edge>
    <edge id=":cro4_9" function="internal">
        <lane id=":cro4_9_0" index="0" speed="10.36" length="7.98" shape="5013.60,5001.60 5006.95,5000.65 5005.87,5000.00"/>
    </edge>
    <edge id=":cro4_21" function="internal">
        <lane id=":cro4_21_0" index="0" speed="10.36" length="16.53" shape="5005.87,5000.00 5002.20,4997.80 4999.35,4993.05 4998.40,4986.40"/>
    </edge>
    <edge id=":cro4_10" function="internal">
        <lane id=":cro4_10_0" index="0" speed="6.51" length="9.03" shape="5008.00,4986.40 5008.35,4988.85 5009.40,4990.60 5011.15,4991.65 5013.60,4992.00"/>
    </edge>
    <edge id=":cro4_11" function="internal">
        <lane id=":cro4_11_0" index="0" speed="13.89" length="27.20" shape="5008.00,4986.40 5008.00,5013.60"/>
        <lane id=":cro4_11_1" index="1" speed="13.89" length="27.20" shape="5004.80,4986.40 5004.80,5013.60"/>
        <lane id=":cro4_11_2" index="2" speed="13.89" length="27.20" shape="5001.60,4986.40 5001.60,5013.60"/>
    </edge>
    <edge id=":cro4_14" function="internal">
        <lane id=":cro4_14_0" index="0" speed="10.36" length="7.98" shape="5001.60,4986.40 5000.65,4993.05 5000.00,4994.13"/>
    </edge>
    <edge id=":cro4_22" function="internal">
        <lane id=":cro4_22_0" index="0" speed="10.36" length="16.53" shape="5000.00,4994.13 4997.80,4997.80 4993.05,5000.65 4986.40,5001.60"/>
    </edge>
    <edge id=":cro4_15" function="internal">
        <lane id=":cro4_15_0" index="0" speed="6.51" length="9.03" shape="4986.40,4992.00 4988.85,4991.65 4990.60,4990.60 4991.65,4988.85 4992.00,4986.40"/>
    </edge>
    <edge id=":cro4_16" function="internal">
        <lane id=":cro4_16_0" index="0" speed="13.89" length="27.20" shape="4986.40,4992.00 5013.60,4992.00"/>
        <lane id=":cro4_16_1" index="1" speed="13.89" length="27.20" shape="4986.40,4995.20 5013.60,4995.20"/>
        <lane id=":cro4_16_2" index="2" speed="13.89" length="27.20" shape="4986.40,4998.40 5013.60,4998.40"/>
    </edge>
    <edge id=":cro4_19" function="internal">
        <lane id=":cro4_19_0" index="0" speed="10.36" length="7.98" shape="4986.40,4998.40 4993.05,4999.35 4994.13,5000.00"/>
    </edge>
    <edge id=":cro4_23" function="internal">
        <lane id=":cro4_23_0" index="0" speed="10.36" length="16.53" shape="4994.13,5000.00 4997.80,5002.20 5000.65,5006.95 5001.60,5013.60"/>
    </edge>
    <edge id=":cro5_0" function="internal">
        <lane id=":cro5_0_0" index="0" speed="6.51" length="9.03" shape="9992.00,5013.60 9991.65,5011.15 9990.60,5009.40 9988.85,5008.35 9986.40,5008.00"/>
    </edge>
    <edge id=":cro5_1" function="internal">
        <lane id=":cro5_1_0" index="0" speed="13.89" length="27.20" shape="9992.00,5013.60 9992.00,4986.40"/>
        <lane id=":cro5_1_1" index="1" speed="13.89" length="27.20" shape="9995.20,5013.60 9995.20,4986.40"/>
        <lane id=":cro5_1_2" index="2" speed="13.89" length="27.20" shape="9998.40,5013.60 9998.40,4986.40"/>
    </edge>
    <edge id=":cro5_4" function="internal">
        <lane id=":cro5_4_0" index="0" speed="10.36" length="7.98" shape="9998.40,5013.60 9999.35,5006.95 10000.00,5005.87"/>
    </edge>
    <edge id=":cro5_20" function="internal">
        <lane id=":cro5_20_0" index="0" speed="10.36" length="16.53" shape="10000.00,5005.87 10002.20,5002.20 10006.95,4999.35 10013.60,4998.40"/>
    </edge>
    <edge id=":cro5_5" function="internal">
        <lane id=":cro5_5_0" index="0" speed="6.51" length="9.03" shape="10013.60,5008.00 10011.15,5008.35 10009.40,5009.40 10008.35,5011.15 10008.00,5013.60"/>
    </edge>
    <edge id=":cro5_6" function="internal">
        <lane id=":cro5_6_0" index="0" speed="13.89" length="27.20" shape="10013.60,5008.00 9986.40,5008.00"/>
        <lane id=":cro5_6_1" index="1" speed="13.89" length="27.20" shape="10013.60,5004.80 9986.40,5004.80"/>
        <lane id=":cro5_6_2" index="2" speed="13.89" length="27.20" shape="10013.60,5001.60 9986.40,5001.60"/>
    </edge>
    <edge id=":cro5_9" function="internal">
        <lane id=":cro5_9_0" index="0" speed="10.36" length="7.98" shape="10013.60,5001.60 10006.95,5000.65 10005.87,5000.00"/>
    </edge>
    <edge id=":cro5_21" function="internal">
        <lane id=":cro5_21_0" index="0" speed="10.36" length="16.53" shape="10005.87,5000.00 10002.20,4997.80 9999.35,4993.05 9998.40,4986.40"/>
    </edge>
    <edge id=":cro5_10" function="internal">
        <lane id=":cro5_10_0" index="0" speed="6.51" length="9.03" shape="10008.00,4986.40 10008.35,4988.85 10009.40,4990.60 10011.15,4991.65 10013.60,4992.00"/>
    </edge>
    <edge id=":cro5_11" function="internal">
        <lane id=":cro5_11_0" index="0" speed="13.89" length="27.20" shape="10008.00,4986.40 10008.00,5013.60"/>
        <lane id=":cro5_11_1" index="1" speed="13.89" length="27.20" shape="10004.80,4986.40 10004.80,5013.60"/>
        <lane id=":cro5_11_2" index="2" speed="13.89" length="27.20" shape="10001.60,4986.40 10001.60,5013.60"/>
    </edge>
    <edge id=":cro5_14" function="internal">
        <lane id=":cro5_14_0" index="0" speed="10.36" length="7.98" shape="10001.60,4986.40 10000.65,4993.05 10000.00,4994.13"/>
    </edge>
    <edge id=":cro5_22" function="internal">
        <lane id=":cro5_22_0" index="0" speed="10.36" length="16.53" shape="10000.00,4994.13 9997.80,4997.80 9993.05,5000.65 9986.40,5001.60"/>
    </edge>
    <edge id=":cro5_15" function="internal">
        <lane id=":cro5_15_0" index="0" speed="6.51" length="9.03" shape="9986.40,4992.00 9988.85,4991.65 9990.60,4990.60 9991.65,4988.85 9992.00,4986.40"/>
    </edge>
    <edge id=":cro5_16" function="internal">
        <lane id=":cro5_16_0" index="0" speed="13.89" length="27.20" shape="9986.40,4992.00 10013.60,4992.00"/>
        <lane id=":cro5_16_1" index="1" speed="13.89" length="27.20" shape="9986.40,4995.20 10013.60,4995.20"/>
        <lane id=":cro5_16_2" index="2" speed="13.89" length="27.20" shape="9986.40,4998.40 10013.60,4998.40"/>
    </edge>
    <edge id=":cro5_19" function="internal">
        <lane id=":cro5_19_0" index="0" speed="10.36" length="7.98" shape="9986.40,4998.40 9993.05,4999.35 9994.13,5000.00"/>
    </edge>
    <edge id=":cro5_23" function="internal">
        <lane id=":cro5_23_0" index="0" speed="10.36" length="16.53" shape="9994.13,5000.00 9997.80,5002.20 10000.65,5006.95 10001.60,5013.60"/>
    </edge>
    <edge id=":cro8_0" function="internal">
        <lane id=":cro8_0_0" index="0" speed="6.51" length="9.03" shape="4992.00,10013.60 4991.65,10011.15 4990.60,10009.40 4988.85,10008.35 4986.40,10008.00"/>
    </edge>
    <edge id=":cro8_1" function="internal">
        <lane id=":cro8_1_0" index="0" speed="13.89" length="27.20" shape="4992.00,10013.60 4992.00,9986.40"/>
        <lane id=":cro8_1_1" index="1" speed="13.89" length="27.20" shape="4995.20,10013.60 4995.20,9986.40"/>
        <lane id=":cro8_1_2" index="2" speed="13.89" length="27.20" shape="4998.40,10013.60 4998.40,9986.40"/>
    </edge>
    <edge id=":cro8_4" function="internal">
        <lane id=":cro8_4_0" index="0" speed="10.36" length="7.98" shape="4998.40,10013.60 4999.35,10006.95 5000.00,10005.87"/>
    </edge>
    <edge id=":cro8_20" function="internal">
        <lane id=":cro8_20_0" index="0" speed="10.36" length="16.53" shape="5000.00,10005.87 5002.20,10002.20 5006.95,9999.35 5013.60,9998.40"/>
    </edge>
    <edge id=":cro8_5" function="internal">
        <lane id=":cro8_5_0" index="0" speed="6.51" length="9.03" shape="5013.60,10008.00 5011.15,10008.35 5009.40,10009.40 5008.35,10011.15 5008.00,10013.60"/>
    </edge>
    <edge id=":cro8_6" function="internal">
        <lane id=":cro8_6_0" index="0" speed="13.89" length="27.20" shape="5013.60,10008.00 4986.40,10008.00"/>
        <lane id=":cro8_6_1" index="1" speed="13.89" length="27.20" shape="5013.60,10004.80 4986.40,10004.80"/>
        <lane id=":cro8_6_2" index="2" speed="13.89" length="27.20" shape="5013.60,10001.60 4986.40,10001.60"/>
    </edge>
    <edge id=":cro8_9" function="internal">
        <lane id=":cro8_9_0" index="0" speed="10.36" length="7.98" shape="5013.60,10001.60 5006.95,10000.65 5005.87,10000.00"/>
    </edge>
    <edge id=":cro8_21" function="internal">
        <lane id=":cro8_21_0" index="0" speed="10.36" length="16.53" shape="5005.87,10000.00 5002.20,9997.80 4999.35,9993.05 4998.40,9986.40"/>
    </edge>
    <edge id=":cro8_10" function="internal">
        <lane id=":cro8_10_0" index="0" speed="6.51" length="9.03" shape="5008.00,9986.40 5008.35,9988.85 5009.40,9990.60 5011.15,9991.65 5013.60,9992.00"/>
    </edge>
    <edge id=":cro8_11" function="internal">
        <lane id=":cro8_11_0" index="0" speed="13.89" length="27.20" shape="5008.00,9986.40 5008.00,10013.60"/>
        <lane id=":cro8_11_1" index="1" speed="13.89" length="27.20" shape="5004.80,9986.40 5004.80,10013.60"/>
        <lane id=":cro8_11_2" index="2" speed="13.89" length="27.20" shape="5001.60,9986.40 5001.60,10013.60"/>
    </edge>
    <edge id=":cro8_14" function="internal">
        <lane id=":cro8_14_0" index="0" speed="10.36" length="7.98" shape="5001.60,9986.40 5000.65,9993.05 5000.00,9994.13"/>
    </edge>
    <edge id=":cro8_22" function="internal">
        <lane id=":cro8_22_0" index="0" speed="10.36" length="16.53" shape="5000.00,9994.13 4997.80,9997.80 4993.05,10000.65 4986.40,10001.60"/>
    </edge>
    <edge id=":cro8_15" function="internal">
        <lane id=":cro8_15_0" index="0" speed="6.51" length="9.03" shape="4986.40,9992.00 4988.85,9991.65 4990.60,9990.60 4991.65,9988.85 4992.00,9986.40"/>
    </edge>
    <edge id=":cro8_16" function="internal">
        <lane id=":cro8_16_0" index="0" speed="13.89" length="27.20" shape="4986.40,9992.00 5013.60,9992.00"/>
        <lane id=":cro8_16_1" index="1" speed="13.89" length="27.20" shape="4986.40,9995.20 5013.60,9995.20"/>
        <lane id=":cro8_16_2" index="2" speed="13.89" length="27.20" shape="4986.40,9998.40 5013.60,9998.40"/>
    </edge>
    <edge id=":cro8_19" function="internal">
        <lane id=":cro8_19_0" index="0" speed="10.36" length="7.98" shape="4986.40,9998.40 4993.05,9999.35 4994.13,10000.00"/>
    </edge>
    <edge id=":cro8_23" function="internal">
        <lane id=":cro8_23_0" index="0" speed="10.36" length="16.53" shape="4994.13,10000.00 4997.80,10002.20 5000.65,10006.95 5001.60,10013.60"/>
    </edge>
    <edge id=":cro9_0" function="internal">
        <lane id=":cro9_0_0" index="0" speed="6.51" length="9.03" shape="9992.00,10013.60 9991.65,10011.15 9990.60,10009.40 9988.85,10008.35 9986.40,10008.00"/>
    </edge>
    <edge id=":cro9_1" function="internal">
        <lane id=":cro9_1_0" index="0" speed="13.89" length="27.20" shape="9992.00,10013.60 9992.00,9986.40"/>
        <lane id=":cro9_1_1" index="1" speed="13.89" length="27.20" shape="9995.20,10013.60 9995.20,9986.40"/>
        <lane id=":cro9_1_2" index="2" speed="13.89" length="27.20" shape="9998.40,10013.60 9998.40,9986.40"/>
    </edge>
    <edge id=":cro9_4" function="internal">
        <lane id=":cro9_4_0" index="0" speed="10.36" length="7.98" shape="9998.40,10013.60 9999.35,10006.95 10000.00,10005.87"/>
    </edge>
    <edge id=":cro9_20" function="internal">
        <lane id=":cro9_20_0" index="0" speed="10.36" length="16.53" shape="10000.00,10005.87 10002.20,10002.20 10006.95,9999.35 10013.60,9998.40"/>
    </edge>
    <edge id=":cro9_5" function="internal">
        <lane id=":cro9_5_0" index="0" speed="6.51" length="9.03" shape="10013.60,10008.00 10011.15,10008.35 10009.40,10009.40 10008.35,10011.15 10008.00,10013.60"/>
    </edge>
    <edge id=":cro9_6" function="internal">
        <lane id=":cro9_6_0" index="0" speed="13.89" length="27.20" shape="10013.60,10008.00 9986.40,10008.00"/>
        <lane id=":cro9_6_1" index="1" speed="13.89" length="27.20" shape="10013.60,10004.80 9986.40,10004.80"/>
        <lane id=":cro9_6_2" index="2" speed="13.89" length="27.20" shape="10013.60,10001.60 9986.40,10001.60"/>
    </edge>
    <edge id=":cro9_9" function="internal">
        <lane id=":cro9_9_0" index="0" speed="10.36" length="7.98" shape="10013.60,10001.60 10006.95,10000.65 10005.87,10000.00"/>
    </edge>
    <edge id=":cro9_21" function="internal">
        <lane id=":cro9_21_0" index="0" speed="10.36" length="16.53" shape="10005.87,10000.00 10002.20,9997.80 9999.35,9993.05 9998.40,9986.40"/>
    </edge>
    <edge id=":cro9_10" function="internal">
        <lane id=":cro9_10_0" index="0" speed="6.51" length="9.03" shape="10008.00,9986.40 10008.35,9988.85 10009.40,9990.60 10011.15,9991.65 10013.60,9992.00"/>
    </edge>
    <edge id=":cro9_11" function="internal">
        <lane id=":cro9_11_0" index="0" speed="13.89" length="27.20" shape="10008.00,9986.40 10008.00,10013.60"/>
        <lane id=":cro9_11_1" index="1" speed="13.89" length="27.20" shape="10004.80,9986.40 10004.80,10013.60"/>
        <lane id=":cro9_11_2" index="2" speed="13.89" length="27.20" shape="10001.60,9986.40 10001.60,10013.60"/>
    </edge>
    <edge id=":cro9_14" function="internal">
        <lane id=":cro9_14_0" index="0" speed="10.36" length="7.98" shape="10001.60,9986.40 10000.65,9993.05 10000.00,9994.13"/>
    </edge>
    <edge id=":cro9_22" function="internal">
        <lane id=":cro9_22_0" index="0" speed="10.36" length="16.53" shape="10000.00,9994.13 9997.80,9997.80 9993.05,10000.65 9986.40,10001.60"/>
    </edge>
    <edge id=":cro9_15" function="internal">
        <lane id=":cro9_15_0" index="0" speed="6.51" length="9.03" shape="9986.40,9992.00 9988.85,9991.65 9990.60,9990.60 9991.65,9988.85 9992.00,9986.40"/>
    </edge>
    <edge id=":cro9_16" function="internal">
        <lane id=":cro9_16_0" index="0" speed="13.89" length="27.20" shape="9986.40,9992.00 10013.60,9992.00"/>
        <lane id=":cro9_16_1" index="1" speed="13.89" length="27.20" shape="9986.40,9995.20 10013.60,9995.20"/>
        <lane id=":cro9_16_2" index="2" speed="13.89" length="27.20" shape="9986.40,9998.40 10013.60,9998.40"/>
    </edge>
    <edge id=":cro9_19" function="internal">
        <lane id=":cro9_19_0" index="0" speed="10.36" length="7.98" shape="9986.40,9998.40 9993.05,9999.35 9994.13,10000.00"/>
    </edge>
    <edge id=":cro9_23" function="internal">
        <lane id=":cro9_23_0" index="0" speed="10.36" length="16.53" shape="9994.13,10000.00 9997.80,10002.20 10000.65,10006.95 10001.60,10013.60"/>
    </edge>

    <edge id="edg1" from="cro4" to="cro1" priority="-1">
        <lane id="edg1_0" index="0" speed="13.89" length="4986.40" shape="4992.00,4986.40 4992.00,0.00"/>
        <lane id="edg1_1" index="1" speed="13.89" length="4986.40" shape="4995.20,4986.40 4995.20,0.00"/>
        <lane id="edg1_2" index="2" speed="13.89" length="4986.40" shape="4998.40,4986.40 4998.40,0.00"/>
    </edge>
    <edge id="edg10" from="cro5" to="cro6" priority="-1">
        <lane id="edg10_0" index="0" speed="13.89" length="4986.40" shape="10013.60,4992.00 15000.00,4992.00"/>
        <lane id="edg10_1" index="1" speed="13.89" length="4986.40" shape="10013.60,4995.20 15000.00,4995.20"/>
        <lane id="edg10_2" index="2" speed="13.89" length="4986.40" shape="10013.60,4998.40 15000.00,4998.40"/>
    </edge>
    <edge id="edg11" from="cro8" to="cro4" priority="-1">
        <lane id="edg11_0" index="0" speed="13.89" length="4972.80" shape="4992.00,9986.40 4992.00,5013.60"/>
        <lane id="edg11_1" index="1" speed="13.89" length="4972.80" shape="4995.20,9986.40 4995.20,5013.60"/>
        <lane id="edg11_2" index="2" speed="13.89" length="4972.80" shape="4998.40,9986.40 4998.40,5013.60"/>
    </edge>
    <edge id="edg12" from="cro4" to="cro8" priority="-1">
        <lane id="edg12_0" index="0" speed="13.89" length="4972.80" shape="5008.00,5013.60 5008.00,9986.40"/>
        <lane id="edg12_1" index="1" speed="13.89" length="4972.80" shape="5004.80,5013.60 5004.80,9986.40"/>
        <lane id="edg12_2" index="2" speed="13.89" length="4972.80" shape="5001.60,5013.60 5001.60,9986.40"/>
    </edge>
    <edge id="edg13" from="cro9" to="cro5" priority="-1">
        <lane id="edg13_0" index="0" speed="13.89" length="4972.80" shape="9992.00,9986.40 9992.00,5013.60"/>
        <lane id="edg13_1" index="1" speed="13.89" length="4972.80" shape="9995.20,9986.40 9995.20,5013.60"/>
        <lane id="edg13_2" index="2" speed="13.89" length="4972.80" shape="9998.40,9986.40 9998.40,5013.60"/>
    </edge>
    <edge id="edg14" from="cro5" to="cro9" priority="-1">
        <lane id="edg14_0" index="0" speed="13.89" length="4972.80" shape="10008.00,5013.60 10008.00,9986.40"/>
        <lane id="edg14_1" index="1" speed="13.89" length="4972.80" shape="10004.80,5013.60 10004.80,9986.40"/>
        <lane id="edg14_2" index="2" speed="13.89" length="4972.80" shape="10001.60,5013.60 10001.60,9986.40"/>
    </edge>
    <edge id="edg15" from="cro8" to="cro7" priority="-1">
        <lane id="edg15_0" index="0" speed="13.89" length="4986.40" shape="4986.40,10008.00 0.00,10008.00"/>
        <lane id="edg15_1" index="1" speed="13.89" length="4986.40" shape="4986.40,10004.80 0.00,10004.80"/>
        <lane id="edg15_2" index="2" speed="13.89" length="4986.40" shape="4986.40,10001.60 0.00,10001.60"/>
    </edge>
    <edge id="edg16" from="cro7" to="cro8" priority="-1">
        <lane id="edg16_0" index="0" speed="13.89" length="4986.40" shape="0.00,9992.00 4986.40,9992.00"/>
        <lane id="edg16_1" index="1" speed="13.89" length="4986.40" shape="0.00,9995.20 4986.40,9995.20"/>
        <lane id="edg16_2" index="2" speed="13.89" length="4986.40" shape="0.00,9998.40 4986.40,9998.40"/>
    </edge>
    <edge id="edg17" from="cro9" to="cro8" priority="-1">
        <lane id="edg17_0" index="0" speed="13.89" length="4972.80" shape="9986.40,10008.00 5013.60,10008.00"/>
        <lane id="edg17_1" index="1" speed="13.89" length="4972.80" shape="9986.40,10004.80 5013.60,10004.80"/>
        <lane id="edg17_2" index="2" speed="13.89" length="4972.80" shape="9986.40,10001.60 5013.60,10001.60"/>
    </edge>
    <edge id="edg18" from="cro8" to="cro9" priority="-1">
        <lane id="edg18_0" index="0" speed="13.89" length="4972.80" shape="5013.60,9992.00 9986.40,9992.00"/>
        <lane id="edg18_1" index="1" speed="13.89" length="4972.80" shape="5013.60,9995.20 9986.40,9995.20"/>
        <lane id="edg18_2" index="2" speed="13.89" length="4972.80" shape="5013.60,9998.40 9986.40,9998.40"/>
    </edge>
    <edge id="edg19" from="cro10" to="cro9" priority="-1">
        <lane id="edg19_0" index="0" speed="13.89" length="4986.40" shape="15000.00,10008.00 10013.60,10008.00"/>
        <lane id="edg19_1" index="1" speed="13.89" length="4986.40" shape="15000.00,10004.80 10013.60,10004.80"/>
        <lane id="edg19_2" index="2" speed="13.89" length="4986.40" shape="15000.00,10001.60 10013.60,10001.60"/>
    </edge>
    <edge id="edg2" from="cro1" to="cro4" priority="-1">
        <lane id="edg2_0" index="0" speed="13.89" length="4986.40" shape="5008.00,0.00 5008.00,4986.40"/>
        <lane id="edg2_1" index="1" speed="13.89" length="4986.40" shape="5004.80,0.00 5004.80,4986.40"/>
        <lane id="edg2_2" index="2" speed="13.89" length="4986.40" shape="5001.60,0.00 5001.60,4986.40"/>
    </edge>
    <edge id="edg20" from="cro9" to="cro10" priority="-1">
        <lane id="edg20_0" index="0" speed="13.89" length="4986.40" shape="10013.60,9992.00 15000.00,9992.00"/>
        <lane id="edg20_1" index="1" speed="13.89" length="4986.40" shape="10013.60,9995.20 15000.00,9995.20"/>
        <lane id="edg20_2" index="2" speed="13.89" length="4986.40" shape="10013.60,9998.40 15000.00,9998.40"/>
    </edge>
    <edge id="edg21" from="cro11" to="cro8" priority="-1">
        <lane id="edg21_0" index="0" speed="13.89" length="4986.40" shape="4992.00,15000.00 4992.00,10013.60"/>
        <lane id="edg21_1" index="1" speed="13.89" length="4986.40" shape="4995.20,15000.00 4995.20,10013.60"/>
        <lane id="edg21_2" index="2" speed="13.89" length="4986.40" shape="4998.40,15000.00 4998.40,10013.60"/>
    </edge>
    <edge id="edg22" from="cro8" to="cro11" priority="-1">
        <lane id="edg22_0" index="0" speed="13.89" length="4986.40" shape="5008.00,10013.60 5008.00,15000.00"/>
        <lane id="edg22_1" index="1" speed="13.89" length="4986.40" shape="5004.80,10013.60 5004.80,15000.00"/>
        <lane id="edg22_2" index="2" speed="13.89" length="4986.40" shape="5001.60,10013.60 5001.60,15000.00"/>
    </edge>
    <edge id="edg23" from="cro12" to="cro9" priority="-1">
        <lane id="edg23_0" index="0" speed="13.89" length="4986.40" shape="9992.00,15000.00 9992.00,10013.60"/>
        <lane id="edg23_1" index="1" speed="13.89" length="4986.40" shape="9995.20,15000.00 9995.20,10013.60"/>
        <lane id="edg23_2" index="2" speed="13.89" length="4986.40" shape="9998.40,15000.00 9998.40,10013.60"/>
    </edge>
    <edge id="edg24" from="cro9" to="cro12" priority="-1">
        <lane id="edg24_0" index="0" speed="13.89" length="4986.40" shape="10008.00,10013.60 10008.00,15000.00"/>
        <lane id="edg24_1" index="1" speed="13.89" length="4986.40" shape="10004.80,10013.60 10004.80,15000.00"/>
        <lane id="edg24_2" index="2" speed="13.89" length="4986.40" shape="10001.60,10013.60 10001.60,15000.00"/>
    </edge>
    <edge id="edg3" from="cro5" to="cro2" priority="-1">
        <lane id="edg3_0" index="0" speed="13.89" length="4986.40" shape="9992.00,4986.40 9992.00,0.00"/>
        <lane id="edg3_1" index="1" speed="13.89" length="4986.40" shape="9995.20,4986.40 9995.20,0.00"/>
        <lane id="edg3_2" index="2" speed="13.89" length="4986.40" shape="9998.40,4986.40 9998.40,0.00"/>
    </edge>
    <edge id="edg4" from="cro2" to="cro5" priority="-1">
        <lane id="edg4_0" index="0" speed="13.89" length="4986.40" shape="10008.00,0.00 10008.00,4986.40"/>
        <lane id="edg4_1" index="1" speed="13.89" length="4986.40" shape="10004.80,0.00 10004.80,4986.40"/>
        <lane id="edg4_2" index="2" speed="13.89" length="4986.40" shape="10001.60,0.00 10001.60,4986.40"/>
    </edge>
    <edge id="edg5" from="cro4" to="cro3" priority="-1">
        <lane id="edg5_0" index="0" speed="13.89" length="4986.40" shape="4986.40,5008.00 0.00,5008.00"/>
        <lane id="edg5_1" index="1" speed="13.89" length="4986.40" shape="4986.40,5004.80 0.00,5004.80"/>
        <lane id="edg5_2" index="2" speed="13.89" length="4986.40" shape="4986.40,5001.60 0.00,5001.60"/>
    </edge>
    <edge id="edg6" from="cro3" to="cro4" priority="-1">
        <lane id="edg6_0" index="0" speed="13.89" length="4986.40" shape="0.00,4992.00 4986.40,4992.00"/>
        <lane id="edg6_1" index="1" speed="13.89" length="4986.40" shape="0.00,4995.20 4986.40,4995.20"/>
        <lane id="edg6_2" index="2" speed="13.89" length="4986.40" shape="0.00,4998.40 4986.40,4998.40"/>
    </edge>
    <edge id="edg7" from="cro5" to="cro4" priority="-1">
        <lane id="edg7_0" index="0" speed="13.89" length="4972.80" shape="9986.40,5008.00 5013.60,5008.00"/>
        <lane id="edg7_1" index="1" speed="13.89" length="4972.80" shape="9986.40,5004.80 5013.60,5004.80"/>
        <lane id="edg7_2" index="2" speed="13.89" length="4972.80" shape="9986.40,5001.60 5013.60,5001.60"/>
    </edge>
    <edge id="edg8" from="cro4" to="cro5" priority="-1">
        <lane id="edg8_0" index="0" speed="13.89" length="4972.80" shape="5013.60,4992.00 9986.40,4992.00"/>
        <lane id="edg8_1" index="1" speed="13.89" length="4972.80" shape="5013.60,4995.20 9986.40,4995.20"/>
        <lane id="edg8_2" index="2" speed="13.89" length="4972.80" shape="5013.60,4998.40 9986.40,4998.40"/>
    </edge>
    <edge id="edg9" from="cro6" to="cro5" priority="-1">
        <lane id="edg9_0" index="0" speed="13.89" length="4986.40" shape="15000.00,5008.00 10013.60,5008.00"/>
        <lane id="edg9_1" index="1" speed="13.89" length="4986.40" shape="15000.00,5004.80 10013.60,5004.80"/>
        <lane id="edg9_2" index="2" speed="13.89" length="4986.40" shape="15000.00,5001.60 10013.60,5001.60"/>
    </edge>

    <tlLogic id="gneJ0" type="static" programID="0" offset="0">
        <phase duration="42" state="GGGGgrrrrrGGGGgrrrrr"/>
        <phase duration="3"  state="yyyyyrrrrryyyyyrrrrr"/>
        <phase duration="42" state="rrrrrGGGGgrrrrrGGGGg"/>
        <phase duration="3"  state="rrrrryyyyyrrrrryyyyy"/>
    </tlLogic>
    <tlLogic id="gneJ3" type="static" programID="0" offset="0">
        <phase duration="42" state="GGGGgrrrrrGGGGgrrrrr"/>
        <phase duration="3"  state="yyyyyrrrrryyyyyrrrrr"/>
        <phase duration="42" state="rrrrrGGGGgrrrrrGGGGg"/>
        <phase duration="3"  state="rrrrryyyyyrrrrryyyyy"/>
    </tlLogic>
    <tlLogic id="gneJ4" type="static" programID="0" offset="0">
        <phase duration="42" state="GGGGgrrrrrGGGGgrrrrr"/>
        <phase duration="3"  state="yyyyyrrrrryyyyyrrrrr"/>
        <phase duration="42" state="rrrrrGGGGgrrrrrGGGGg"/>
        <phase duration="3"  state="rrrrryyyyyrrrrryyyyy"/>
    </tlLogic>
    <tlLogic id="gneJ7" type="static" programID="0" offset="0">
        <phase duration="42" state="GGGGgrrrrrGGGGgrrrrr"/>
        <phase duration="3"  state="yyyyyrrrrryyyyyrrrrr"/>
        <phase duration="42" state="rrrrrGGGGgrrrrrGGGGg"/>
        <phase duration="3"  state="rrrrryyyyyrrrrryyyyy"/>
    </tlLogic>

    <junction id="cro1" type="dead_end" x="5000.00" y="0.00" incLanes="edg1_0 edg1_1 edg1_2" intLanes="" shape="5000.00,0.00 4990.40,0.00 5000.00,0.00"/>
    <junction id="cro10" type="dead_end" x="15000.00" y="10000.00" incLanes="edg20_0 edg20_1 edg20_2" intLanes="" shape="15000.00,10000.00 15000.00,9990.40 15000.00,10000.00"/>
    <junction id="cro11" type="dead_end" x="5000.00" y="15000.00" incLanes="edg22_0 edg22_1 edg22_2" intLanes="" shape="5000.00,15000.00 5009.60,15000.00 5000.00,15000.00"/>
    <junction id="cro12" type="dead_end" x="10000.00" y="15000.00" incLanes="edg24_0 edg24_1 edg24_2" intLanes="" shape="10000.00,15000.00 10009.60,15000.00 10000.00,15000.00"/>
    <junction id="cro2" type="dead_end" x="10000.00" y="0.00" incLanes="edg3_0 edg3_1 edg3_2" intLanes="" shape="10000.00,0.00 9990.40,0.00 10000.00,0.00"/>
    <junction id="cro3" type="dead_end" x="0.00" y="5000.00" incLanes="edg5_0 edg5_1 edg5_2" intLanes="" shape="0.00,5000.00 0.00,5009.60 0.00,5000.00"/>
    <junction id="cro4" type="traffic_light" x="5000.00" y="5000.00" incLanes="edg11_0 edg11_1 edg11_2 edg7_0 edg7_1 edg7_2 edg2_0 edg2_1 edg2_2 edg6_0 edg6_1 edg6_2" intLanes=":cro4_0_0 :cro4_1_0 :cro4_1_1 :cro4_1_2 :cro4_20_0 :cro4_5_0 :cro4_6_0 :cro4_6_1 :cro4_6_2 :cro4_21_0 :cro4_10_0 :cro4_11_0 :cro4_11_1 :cro4_11_2 :cro4_22_0 :cro4_15_0 :cro4_16_0 :cro4_16_1 :cro4_16_2 :cro4_23_0" shape="4990.40,5013.60 5009.60,5013.60 5010.04,5011.38 5010.60,5010.60 5011.38,5010.04 5012.38,5009.71 5013.60,5009.60 5013.60,4990.40 5011.38,4989.96 5010.60,4989.40 5010.04,4988.62 5009.71,4987.62 5009.60,4986.40 4990.40,4986.40 4989.96,4988.62 4989.40,4989.40 4988.62,4989.96 4987.62,4990.29 4986.40,4990.40 4986.40,5009.60 4988.62,5010.04 4989.40,5010.60 4989.96,5011.38 4990.29,5012.38">
        <request index="0"  response="00000000000000000000" foes="00000000000111000000" cont="0"/>
        <request index="1"  response="10000000001000000000" foes="11111100001111000000" cont="0"/>
        <request index="2"  response="10000000001000000000" foes="11111100001111000000" cont="0"/>
        <request index="3"  response="10000000001000000000" foes="11111100001111000000" cont="0"/>