<?xml version="1.0" encoding="UTF-8"?>

<!-- generated on 05/12/23 18:00:48 by Eclipse SUMO jtrrouter Version 1.8.0
<configuration xmlns:xsi="http://www.w3.org/2001/XMLSchema-instance" xsi:noNamespaceSchemaLocation="http://sumo.dlr.de/xsd/jtrrouterConfiguration.xsd">

    <input>
        <net-file value="test_2.net.xml"/>
        <route-files value="test_2demo.rou.xml"/>
        <turn-ratio-files value="turn.xml"/>
    </input>

    <output>
        <output-file value="test_2.rou.xml"/>
    </output>

    <processing>
        <no-internal-links value="true"/>
    </processing>

    <time>
        <begin value="0"/>
        <end value="2000"/>
    </time>

</configuration>
-->

<routes xmlns:xsi="http://www.w3.org/2001/XMLSchema-instance" xsi:noNamespaceSchemaLocation="http://sumo.dlr.de/xsd/routes_file.xsd">
    <vehicle id="flow1.0" depart="0.00" color="red">
        <route edges="edg2 edg8 edg3"/>
    </vehicle>
    <vehicle id="flow2.0" depart="0.00" color="green">
        <route edges="edg4 edg10"/>
    </vehicle>
    <vehicle id="flow3.0" depart="0.00" color="blue">
        <route edges="edg9 edg3"/>
    </vehicle>
    <vehicle id="flow4.0" depart="0.00" color="yellow">
        <route edges="edg19 edg24"/>
    </vehicle>
    <vehicle id="flow5.0" depart="0.00" color="magenta">
        <route edges="edg6 edg1"/>
    </vehicle>
    <vehicle id="flow6.0" depart="0.00" color="cyan">
        <route edges="edg16 edg22"/>
    </vehicle>
    <vehicle id="flow7.0" depart="0.00" color="white">
        <route edges="edg21 edg11 edg5"/>
    </vehicle>
    <vehicle id="flow8.0" depart="0.00" color="77,179,102">
        <route edges="edg23 edg17 edg11 edg8 edg14 edg24"/>
    </vehicle>
    <vehicle id="flow4.1" depart="3.27" color="yellow">
        <route edges="edg19 edg24"/>
    </vehicle>
    <vehicle id="flow5.1" depart="3.60" color="magenta">
        <route edges="edg6 edg1"/>
    </vehicle>
    <vehicle id="flow2.1" depart="4.00" color="green">
        <route edges="edg4 edg10"/>
    </vehicle>
    <vehicle id="flow3.1" depart="5.14" color="blue">
        <route edges="edg9 edg7 edg1"/>
    </vehicle>
    <vehicle id="flow7.1" depart="5.14" color="white">
        <route edges="edg21 edg18 edg13 edg3"/>
    </vehicle>
    <vehicle id="flow1.1" depart="6.00" color="red">
        <route edges="edg2 edg12 edg18 edg24"/>
    </vehicle>
    <vehicle id="flow8.1" depart="6.00" color="77,179,102">
        <route edges="edg23 edg20"/>
    </vehicle>
    <vehicle id="flow4.2" depart="6.55" color="yellow">
        <route edges="edg19 edg24"/>
    </vehicle>
    <vehicle id="flow5.2" depart="7.20" color="magenta">
        <route edges="edg6 edg12 edg18 edg13 edg10"/>
    </vehicle>
    <vehicle id="flow6.1" depart="7.20" color="cyan">
        <route edges="edg16 edg18 edg24"/>
    </vehicle>
    <vehicle id="flow2.2" depart="8.00" color="green">
        <route edges="edg4 edg10"/>
    </vehicle>
    <vehicle id="flow4.3" depart="9.82" color="yellow">
        <route edges="edg19 edg24"/>
    </vehicle>
    <vehicle id="flow3.2" depart="10.29" color="blue">
        <route edges="edg9 edg14 edg24"/>
    </vehicle>
    <vehicle id="flow7.2" depart="10.29" color="white">
        <route edges="edg21 edg15"/>
    </vehicle>
    <vehicle id="flow5.3" depart="10.80" color="magenta">
        <route edges="edg6 edg1"/>
    </vehicle>
    <vehicle id="flow1.2" depart="12.00" color="red">
        <route edges="edg2 edg12 edg18 edg24"/>
    </vehicle>
    <vehicle id="flow2.3" depart="12.00" color="green">
        <route edges="edg4 edg10"/>
    </vehicle>
    <vehicle id="flow8.2" depart="12.00" color="77,179,102">
        <route edges="edg23 edg13 edg10"/>
    </vehicle>
    <vehicle id="flow4.4" depart="13.09" color="yellow">
        <route edges="edg19 edg24"/>
    </vehicle>
    <vehicle id="flow5.4" depart="14.40" color="magenta">
        <route edges="edg6 edg1"/>
    </vehicle>
    <vehicle id="flow6.2" depart="14.40" color="cyan">
        <route edges="edg16 edg22"/>
    </vehicle>
    <vehicle id="flow3.3" depart="15.43" color="blue">
        <route edges="edg9 edg14 edg24"/>
    </vehicle>
    <vehicle id="flow7.3" depart="15.43" color="white">
        <route edges="edg21 edg18 edg24"/>
    </vehicle>
    <vehicle id="flow2.4" depart="16.00" color="green">
        <route edges="edg4 edg14 edg24"/>
    </vehicle>
    <vehicle id="flow4.5" depart="16.37" color="yellow">
        <route edges="edg19 edg24"/>
    </vehicle>
    <vehicle id="flow1.3" depart="18.00" color="red">
        <route edges="edg2 edg12 edg18 edg24"/>
    </vehicle>
    <vehicle id="flow5.5" depart="18.00" color="magenta">
        <route edges="edg6 edg1"/>
    </vehicle>
    <vehicle id="flow8.3" depart="18.00" color="77,179,102">
        <route edges="edg23 edg20"/>
    </vehicle>
    <vehicle id="flow4.6" depart="19.64" color="yellow">
        <route edges="edg19 edg13 edg3"/>
    </vehicle>
    <vehicle id="flow2.5" depart="20.00" color="green">
        <route edges="edg4 edg10"/>
    </vehicle>
    <vehicle id="flow3.4" depart="20.57" color="blue">
        <route edges="edg9 edg14 edg17 edg15"/>
    </vehicle>
    <vehicle id="flow7.4" depart="20.57" color="white">
        <route edges="edg21 edg18 edg13 edg10"/>
    </vehicle>
    <vehicle id="flow5.6" depart="21.60" color="magenta">
        <route edges="edg6 edg8 edg10"/>
    </vehicle>
    <vehicle id="flow6.3" depart="21.60" color="cyan">
        <route edges="edg16 edg18 edg13 edg3"/>
    </vehicle>
    <vehicle id="flow4.7" depart="22.91" color="yellow">
        <route edges="edg19 edg13 edg10"/>
    </vehicle>
    <vehicle id="flow1.4" depart="24.00" color="red">
        <route edges="edg2 edg12 edg15"/>
    </vehicle>
    <vehicle id="flow2.6" depart="24.00" color="green">
        <route edges="edg4 edg7 edg1"/>
    </vehicle>
    <vehicle id="flow8.4" depart="24.00" color="77,179,102">
        <route edges="edg23 edg13 edg10"/>
    </vehicle>
    <vehicle id="flow5.7" depart="25.20" color="magenta">
        <route edges="edg6 edg12 edg18 edg24"/>
    </vehicle>
    <vehicle id="flow3.5" depart="25.72" color="blue">
        <route edges="edg9 edg3"/>
    </vehicle>
    <vehicle id="flow7.5" depart="25.72" color="white">
        <route edges="edg21 edg15"/>
    </vehicle>
    <vehicle id="flow4.8" depart="26.18" color="yellow">
        <route edges="edg19 edg24"/>
    </vehicle>
    <vehicle id="flow2.7" depart="28.00" color="green">
        <route edges="edg4 edg14 edg20"/>
    </vehicle>
    <vehicle id="flow5.8" depart="28.80" color="magenta">
        <route edges="edg6 edg12 edg22"/>
    </vehicle>
    <vehicle id="flow6.4" depart="28.80" color="cyan">
        <route edges="edg16 edg11 edg1"/>
    </vehicle>
    <vehicle id="flow4.9" depart="29.46" color="yellow">
        <route edges="edg19 edg13 edg7 edg12 edg22"/>
    </vehicle>
    <vehicle id="flow1.5" depart="30.00" color="red">
        <route edges="edg2 edg5"/>
    </vehicle>
    <vehicle id="flow8.5" depart="30.00" color="77,179,102">
        <route edges="edg23 edg17 edg22"/>
    </vehicle>
    <vehicle id="flow3.6" depart="30.86" color="blue">
        <route edges="edg9 edg3"/>
    </vehicle>
    <vehicle id="flow7.6" depart="30.86" color="white">
        <route edges="edg21 edg18 edg24"/>
    </vehicle>
    <vehicle id="flow2.8" depart="32.00" color="green">
        <route edges="edg4 edg7 edg1"/>
    </vehicle>
    <vehicle id="flow5.9" depart="32.40" color="magenta">
        <route edges="edg6 edg12 edg18 edg24"/>
    </vehicle>
    <vehicle id="flow4.10" depart="32.73" color="yellow">
        <route edges="edg19 edg13 edg3"/>
    </vehicle>
    <vehicle id="flow1.6" depart="36.00" color="red">
        <route edges="edg2 edg8 edg3"/>
    </vehicle>
    <vehicle id="flow2.9" depart="36.00" color="green">
        <route edges="edg4 edg10"/>
    </vehicle>
    <vehicle id="flow5.10" depart="36.00" color="magenta">
        <route edges="edg6 edg8 edg10"/>
    </vehicle>
    <vehicle id="flow6.5" depart="36.00" color="cyan">
        <route edges="edg16 edg18 edg13 edg7 edg1"/>
    </vehicle>
    <vehicle id="flow8.6" depart="36.00" color="77,179,102">
        <route edges="edg23 edg17 edg11 edg5"/>
    </vehicle>
    <vehicle id="flow3.7" depart="36.00" color="blue">
        <route edges="edg9 edg3"/>
    </vehicle>
    <vehicle id="flow7.7" depart="36.00" color="white">
        <route edges="edg21 edg18 edg24"/>
    </vehicle>
    <vehicle id="flow4.11" depart="36.00" color="yellow">
        <route edges="edg19 edg13 edg7 edg1"/>
    </vehicle>
    <vehicle id="flow4.12" depart="39.28" color="yellow">
        <route edges="edg19 edg24"/>
    </vehicle>
    <vehicle id="flow5.11" depart="39.60" color="magenta">
        <route edges="edg6 edg12 edg18 edg13 edg3"/>
    </vehicle>
    <vehicle id="flow2.10" depart="40.00" color="green">
        <route edges="edg4 edg14 edg24"/>
    </vehicle>
    <vehicle id="flow3.8" depart="41.14" color="blue">
        <route edges="edg9 edg3"/>
    </vehicle>
    <vehicle id="flow7.8" depart="41.14" color="white">
        <route edges="edg21 edg11 edg8 edg3"/>
    </vehicle>
    <vehicle id="flow1.7" depart="42.00" color="red">
        <route edges="edg2 edg8 edg3"/>
    </vehicle>
    <vehicle id="flow8.7" depart="42.00" color="77,179,102">
        <route edges="edg23 edg17 edg11 edg8 edg3"/>
    </vehicle>
    <vehicle id="flow4.13" depart="42.55" color="yellow">
        <route edges="edg19 edg17 edg22"/>
    </vehicle>
    <vehicle id="flow5.12" depart="43.20" color="magenta">
        <route edges="edg6 edg1"/>
    </vehicle>
    <vehicle id="flow6.6" depart="43.20" color="cyan">
        <route edges="edg16 edg18 edg24"/>
    </vehicle>
    <vehicle id="flow2.11" depart="44.00" color="green">
        <route edges="edg4 edg14 edg20"/>
    </vehicle>
    <vehicle id="flow4.14" depart="45.82" color="yellow">
        <route edges="edg19 edg13 edg3"/>
    </vehicle>
    <vehicle id="flow3.9" depart="46.29" color="blue">
        <route edges="edg9 edg7 edg1"/>
    </vehicle>
    <vehicle id="flow7.9" depart="46.29" color="white">
        <route edges="edg21 edg15"/>
    </vehicle>
    <vehicle id="flow5.13" depart="46.80" color="magenta">
        <route edges="edg6 edg8 edg14 edg17 edg22"/>
    </vehicle>
    <vehicle id="flow1.8" depart="48.00" color="red">
        <route edges="edg2 edg8 edg14 edg24"/>
    </vehicle>
    <vehicle id="flow2.12" depart="48.00" color="green">
        <route edges="edg4 edg14 edg24"/>
    </vehicle>
    <vehicle id="flow8.8" depart="48.00" color="77,179,102">
        <route edges="edg23 edg20"/>
    </vehicle>
    <vehicle id="flow4.15" depart="49.10" color="yellow">
        <route edges="edg19 edg17 edg22"/>
    </vehicle>
    <vehicle id="flow5.14" depart="50.40" color="magenta">
        <route edges="edg6 edg1"/>
    </vehicle>
    <vehicle id="flow6.7" depart="50.40" color="cyan">
        <route edges="edg16 edg11 edg1"/>
    </vehicle>
    <vehicle id="flow3.10" depart="51.43" color="blue">
        <route edges="edg9 edg3"/>
    </vehicle>
    <vehicle id="flow7.10" depart="51.43" color="white">
        <route edges="edg21 edg15"/>
    </vehicle>
    <vehicle id="flow2.13" depart="52.00" color="green">
        <route edges="edg4 edg7 edg12 edg18 edg24"/>
    </vehicle>
    <vehicle id="flow4.16" depart="52.37" color="yellow">
        <route edges="edg19 edg13 edg3"/>
    </vehicle>
    <vehicle id="flow1.9" depart="54.00" color="red">
        <route edges="edg2 edg12 edg22"/>
    </vehicle>
    <vehicle id="flow5.15" depart="54.00" color="magenta">
        <route edges="edg6 edg1"/>
    </vehicle>
    <vehicle id="flow8.9" depart="54.00" color="77,179,102">
        <route edges="edg23 edg13 edg10"/>
    </vehicle>
    <vehicle id="flow4.17" depart="55.64" color="yellow">
        <route edges="edg19 edg13 edg10"/>
    </vehicle>
    <vehicle id="flow2.14" depart="56.00" color="green">
        <route edges="edg4 edg7 edg1"/>
    </vehicle>
    <vehicle id="flow3.11" depart="56.57" color="blue">
        <route edges="edg9 edg14 edg24"/>
    </vehicle>
    <vehicle id="flow7.11" depart="56.57" color="white">
        <route edges="edg21 edg15"/>
    </vehicle>
    <vehicle id="flow5.16" depart="57.60" color="magenta">
        <route edges="edg6 edg1"/>
    </vehicle>
    <vehicle id="flow6.8" depart="57.60" color="cyan">
        <route edges="edg16 edg11 edg8 edg10"/>
    </vehicle>
    <vehicle id="flow4.18" depart="58.91" color="yellow">
        <route edges="edg19 edg24"/>
    </vehicle>
    <vehicle id="flow1.10" depart="60.00" color="red">
        <route edges="edg2 edg5"/>
    </vehicle>
    <vehicle id="flow2.15" depart="60.00" color="green">
        <route edges="edg4 edg7 edg12 edg15"/>
    </vehicle>
    <vehicle id="flow8.10" depart="60.00" color="77,179,102">
        <route edges="edg23 edg17 edg11 edg8 edg3"/>
    </vehicle>
    <vehicle id="flow5.17" depart="61.20" color="magenta">
        <route edges="edg6 edg12 edg15"/>
    </vehicle>
    <vehicle id="flow3.12" depart="61.72" color="blue">
        <route edges="edg9 edg3"/>
    </vehicle>
    <vehicle id="flow7.12" depart="61.72" color="white">
        <route edges="edg21 edg11 edg5"/>
    </vehicle>
    <vehicle id="flow4.19" depart="62.19" color="yellow">
        <route edges="edg19 edg13 edg3"/>
    </vehicle>
    <vehicle id="flow2.16" depart="64.00" color="green">
        <route edges="edg4 edg7 edg5"/>
    </vehicle>
    <vehicle id="flow5.18" depart="64.80" color="magenta">
        <route edges="edg6 edg12 edg15"/>
    </vehicle>
    <vehicle id="flow6.9" depart="64.80" color="cyan">
        <route edges="edg16 edg22"/>
    </vehicle>
    <vehicle id="flow4.20" depart="65.46" color="yellow">
        <route edges="edg19 edg17 edg11 edg5"/>
    </vehicle>
    <vehicle id="flow1.11" depart="66.00" color="red">
        <route edges="edg2 edg12 edg18 edg13 edg3"/>
    </vehicle>
    <vehicle id="flow8.11" depart="66.00" color="77,179,102">
        <route edges="edg23 edg20"/>
    </vehicle>
    <vehicle id="flow3.13" depart="66.86" color="blue">
        <route edges="edg9 edg7 edg1"/>
    </vehicle>
    <vehicle id="flow7.13" depart="66.86" color="white">
        <route edges="edg21 edg18 edg13 edg10"/>
    </vehicle>
    <vehicle id="flow2.17" depart="68.00" color="green">
        <route edges="edg4 edg10"/>
    </vehicle>
    <vehicle id="flow5.19" depart="68.40" color="magenta">
        <route edges="edg6 edg1"/>
    </vehicle>
    <vehicle id="flow4.21" depart="68.73" color="yellow">
        <route edges="edg19 edg17 edg11 edg8 edg3"/>
    </vehicle>
    <vehicle id="flow1.12" depart="72.00" color="red">
        <route edges="edg2 edg12 edg22"/>
    </vehicle>
    <vehicle id="flow2.18" depart="72.00" color="green">
        <route edges="edg4 edg10"/>
    </vehicle>
    <vehicle id="flow5.20" depart="72.00" color="magenta">
        <route edges="edg6 edg1"/>
    </vehicle>
    <vehicle id="flow6.10" depart="72.00" color="cyan">
        <route edges="edg16 edg11 edg5"/>
    </vehicle>
    <vehicle id="flow8.12" depart="72.00" color="77,179,102">
        <route edges="edg23 edg13 edg10"/>
    </vehicle>
    <vehicle id="flow3.14" depart="72.00" color="blue">
        <route edges="edg9 edg14 edg24"/>
    </vehicle>
    <vehicle id="flow7.14" depart="72.00" color="white">
        <route edges="edg21 edg11 edg1"/>
    </vehicle>
    <vehicle id="flow4.22" depart="72.01" color="yellow">
        <route edges="edg19 edg17 edg11 edg8 edg14 edg24"/>
    </vehicle>
    <vehicle id="flow4.23" depart="75.28" color="yellow">
        <route edges="edg19 edg17 edg15"/>
    </vehicle>
    <vehicle id="flow5.21" depart="75.60" color="magenta">
        <route edges="edg6 edg8 edg3"/>
    </vehicle>
    <vehicle id="flow2.19" depart="76.00" color="green">
        <route edges="edg4 edg14 edg20"/>
    </vehicle>
    <vehicle id="flow3.15" depart="77.15" color="blue">
        <route edges="edg9 edg3"/>
    </vehicle>
    <vehicle id="flow7.15" depart="77.15" color="white">
        <route edges="edg21 edg18 edg20"/>
    </vehicle>
    <vehicle id="flow1.13" depart="78.00" color="red">
        <route edges="edg2 edg12 edg15"/>
    </vehicle>
    <vehicle id="flow8.13" depart="78.00" color="77,179,102">
        <route edges="edg23 edg13 edg3"/>
    </vehicle>
    <vehicle id="flow4.24" depart="78.55" color="yellow">
        <route edges="edg19 edg13 edg7 edg5"/>
    </vehicle>
    <vehicle id="flow5.22" depart="79.20" color="magenta">
        <route edges="edg6 edg12 edg15"/>
    </vehicle>
    <vehicle id="flow6.11" depart="79.20" color="cyan">
        <route edges="edg16 edg22"/>
    </vehicle>
    <vehicle id="flow2.20" depart="80.00" color="green">
        <route edges="edg4 edg7 edg1"/>
    </vehicle>
    <vehicle id="flow4.25" depart="81.83" color="yellow">
        <route edges="edg19 edg17 edg22"/>
    </vehicle>
    <vehicle id="flow3.16" depart="82.29" color="blue">
        <route edges="edg9 edg7 edg5"/>
    </vehicle>
    <vehicle id="flow7.16" depart="82.29" color="white">
        <route edges="edg21 edg18 edg13 edg3"/>
    </vehicle>
    <vehicle id="flow5.23" depart="82.80" color="magenta">
        <route edges="edg6 edg12 edg18 edg13 edg3"/>
    </vehicle>
    <vehicle id="flow1.14" depart="84.00" color="red">
        <route edges="edg2 edg8 edg3"/>
    </vehicle>
    <vehicle id="flow2.21" depart="84.00" color="green">
        <route edges="edg4 edg7 edg1"/>
    </vehicle>
    <vehicle id="flow8.14" depart="84.00" color="77,179,102">
        <route edges="edg23 edg20"/>
    </vehicle>
    <vehicle id="flow4.26" depart="85.10" color="yellow">
        <route edges="edg19 edg17 edg15"/>
    </vehicle>
    <vehicle id="flow5.24" depart="86.40" color="magenta">
        <route edges="edg6 edg1"/>
    </vehicle>
    <vehicle id="flow6.12" depart="86.40" color="cyan">
        <route edges="edg16 edg22"/>
    </vehicle>
    <vehicle id="flow3.17" depart="87.43" color="blue">
        <route edges="edg9 edg7 edg12 edg18 edg20"/>
    </vehicle>
    <vehicle id="flow7.17" depart="87.43" color="white">
        <route edges="edg21 edg18 edg24"/>
    </vehicle>
    <vehicle id="flow2.22" depart="88.00" color="green">
        <route edges="edg4 edg7 edg12 edg15"/>
    </vehicle>
    <vehicle id="flow4.27" depart="88.37" color="yellow">
        <route edges="edg19 edg17 edg22"/>
    </vehicle>
    <vehicle id="flow1.15" depart="90.00" color="red">
        <route edges="edg2 edg8 edg10"/>
    </vehicle>
    <vehicle id="flow5.25" depart="90.00" color="magenta">
        <route edges="edg6 edg1"/>
    </vehicle>
    <vehicle id="flow8.15" depart="90.00" color="77,179,102">
        <route edges="edg23 edg20"/>
    </vehicle>
    <vehicle id="flow4.28" depart="91.64" color="yellow">
        <route edges="edg19 edg17 edg11 edg8 edg3"/>
    </vehicle>
    <vehicle id="flow2.23" depart="92.00" color="green">
        <route edges="edg4 edg10"/>
    </vehicle>
    <vehicle id="flow3.18" depart="92.57" color="blue">
        <route edges="edg9 edg14 edg17 edg11 edg1"/>
    </vehicle>
    <vehicle id="flow7.18" depart="92.57" color="white">
        <route edges="edg21 edg15"/>
    </vehicle>
    <vehicle id="flow5.26" depart="93.60" color="magenta">
        <route edges="edg6 edg8 edg3"/>
    </vehicle>
    <vehicle id="flow6.13" depart="93.60" color="cyan">
        <route edges="edg16 edg22"/>
    </vehicle>
    <vehicle id="flow4.29" depart="94.92" color="yellow">
        <route edges="edg19 edg13 edg7 edg5"/>
    </vehicle>
    <vehicle id="flow1.16" depart="96.00" color="red">
        <route edges="edg2 edg5"/>
    </vehicle>
    <vehicle id="flow2.24" depart="96.00" color="green">
        <route edges="edg4 edg10"/>
    </vehicle>
    <vehicle id="flow8.16" depart="96.00" color="77,179,102">
        <route edges="edg23 edg17 edg15"/>
    </vehicle>
    <vehicle id="flow5.27" depart="97.20" color="magenta">
        <route edges="edg6 edg8 edg10"/>
    </vehicle>
    <vehicle id="flow3.19" depart="97.72" color="blue">
        <route edges="edg9 edg14 edg24"/>
    </vehicle>
    <vehicle id="flow7.19" depart="97.72" color="white">
        <route edges="edg21 edg11 edg1"/>
    </vehicle>
    <vehicle id="flow4.30" depart="98.19" color="yellow">
        <route edges="edg19 edg13 edg10"/>
    </vehicle>
    <vehicle id="flow2.25" depart="100.00" color="green">
        <route edges="edg4 edg7 edg12 edg22"/>
    </vehicle>
    <vehicle id="flow5.28" depart="100.80" color="magenta">
        <route edges="edg6 edg8 edg10"/>
    </vehicle>
    <vehicle id="flow6.14" depart="100.80" color="cyan">
        <route edges="edg16 edg22"/>
    </vehicle>
    <vehicle id="flow4.31" depart="101.46" color="yellow">
        <route edges="edg19 edg17 edg11 edg5"/>
    </vehicle>
    <vehicle id="flow1.17" depart="102.00" color="red">
        <route edges="edg2 edg5"/>
    </vehicle>
    <vehicle id="flow8.17" depart="102.00" color="77,179,102">
        <route edges="edg23 edg20"/>
    </vehicle>
    <vehicle id="flow3.20" depart="102.86" color="blue">
        <route edges="edg9 edg14 edg20"/>
    </vehicle>
    <vehicle id="flow7.20" depart="102.86" color="white">
        <route edges="edg21 edg11 edg1"/>
    </vehicle>
    <vehicle id="flow2.26" depart="104.00" color="green">
        <route edges="edg4 edg7 edg5"/>
    </vehicle>
    <vehicle id="flow5.29" depart="104.40" color="magenta">
        <route edges="edg6 edg12 edg22"/>
    </vehicle>
    <vehicle id="flow4.32" depart="104.74" color="yellow">
        <route edges="edg19 edg24"/>
    </vehicle>
    <vehicle id="flow1.18" depart="108.00" color="red">
        <route edges="edg2 edg5"/>
    </vehicle>
    <vehicle id="flow2.27" depart="108.00" color="green">
        <route edges="edg4 edg14 edg24"/>
    </vehicle>
    <vehicle id="flow5.30" depart="108.00" color="magenta">
        <route edges="edg6 edg1"/>
    </vehicle>
    <vehicle id="flow6.15" depart="108.00" color="cyan">
        <route edges="edg16 edg18 edg24"/>
    </vehicle>
    <vehicle id="flow8.18" depart="108.00" color="77,179,102">
        <route edges="edg23 edg17 edg11 edg8 edg10"/>
    </vehicle>
    <vehicle id="flow3.21" depart="108.00" color="blue">
        <route edges="edg9 edg3"/>
    </vehicle>
    <vehicle id="flow7.21" depart="108.00" color="white">
        <route edges="edg21 edg11 edg1"/>
    </vehicle>
    <vehicle id="flow4.33" depart="108.01" color="yellow">
        <route edges="edg19 edg24"/>
    </vehicle>
    <vehicle id="flow4.34" depart="111.28" color="yellow">
        <route edges="edg19 edg24"/>
    </vehicle>
    <vehicle id="flow5.31" depart="111.60" color="magenta">
        <route edges="edg6 edg1"/>
    </vehicle>
    <vehicle id="flow2.28" depart="112.00" color="green">
        <route edges="edg4 edg10"/>
    </vehicle>
    <vehicle id="flow3.22" depart="113.15" color="blue">
        <route edges="edg9 edg14 edg24"/>
    </vehicle>
    <vehicle id="flow7.22" depart="113.15" color="white">
        <route edges="edg21 edg18 edg24"/>
    </vehicle>
    <vehicle id="flow1.19" depart="114.00" color="red">
        <route edges="edg2 edg8 edg3"/>
    </vehicle>
    <vehicle id="flow8.19" depart="114.00" color="77,179,102">
        <route edges="edg23 edg17 edg11 edg8 edg3"/>
    </vehicle>
    <vehicle id="flow4.35" depart="114.56" color="yellow">
        <route edges="edg19 edg17 edg15"/>
    </vehicle>
    <vehicle id="flow5.32" depart="115.20" color="magenta">
        <route edges="edg6 edg12 edg18 edg24"/>
    </vehicle>
    <vehicle id="flow6.16" depart="115.20" color="cyan">
        <route edges="edg16 edg11 edg5"/>
    </vehicle>
    <vehicle id="flow2.29" depart="116.00" color="green">
        <route edges="edg4 edg14 edg24"/>
    </vehicle>
    <vehicle id="flow4.36" depart="117.83" color="yellow">
        <route edges="edg19 edg13 edg10"/>
    </vehicle>
    <vehicle id="flow3.23" depart="118.29" color="blue">
        <route edges="edg9 edg14 edg24"/>
    </vehicle>
    <vehicle id="flow7.23" depart="118.29" color="white">
        <route edges="edg21 edg18 edg13 edg3"/>
    </vehicle>
    <vehicle id="flow5.33" depart="118.80" color="magenta">
        <route edges="edg6 edg1"/>
    </vehicle>
    <vehicle id="flow1.20" depart="120.00" color="red">
        <route edges="edg2 edg12 edg18 edg24"/>
    </vehicle>
    <vehicle id="flow2.30" depart="120.00" color="green">
        <route edges="edg4 edg10"/>
    </vehicle>
    <vehicle id="flow8.20" depart="120.00" color="77,179,102">
        <route edges="edg23 edg20"/>
    </vehicle>
    <vehicle id="flow4.37" depart="121.10" color="yellow">
        <route edges="edg19 edg17 edg11 edg1"/>
    </vehicle>
    <vehicle id="flow5.34" depart="122.40" color="magenta">
        <route edges="edg6 edg8 edg3"/>
    </vehicle>
    <vehicle id="flow6.17" depart="122.40" color="cyan">
        <route edges="edg16 edg22"/>
    </vehicle>
    <vehicle id="flow3.24" depart="123.43" color="blue">
        <route edges="edg9 edg3"/>
    </vehicle>
    <vehicle id="flow7.24" depart="123.43" color="white">
        <route edges="edg21 edg18 edg20"/>
    </vehicle>
    <vehicle id="flow2.31" depart="124.00" color="green">
        <route edges="edg4 edg7 edg5"/>
    </vehicle>
    <vehicle id="flow4.38" depart="124.37" color="yellow">
        <route edges="edg19 edg24"/>
    </vehicle>
    <vehicle id="flow1.21" depart="126.00" color="red">
        <route edges="edg2 edg5"/>
    </vehicle>
    <vehicle id="flow5.35" depart="126.00" color="magenta">
        <route edges="edg6 edg8 edg14 edg24"/>
    </vehicle>
    <vehicle id="flow8.21" depart="126.00" color="77,179,102">
        <route edges="edg23 edg13 edg10"/>
    </vehicle>
    <vehicle id="flow4.39" depart="127.65" color="yellow">
        <route edges="edg19 edg17 edg22"/>
    </vehicle>
    <vehicle id="flow2.32" depart="128.00" color="green">
        <route edges="edg4 edg14 edg24"/>
    </vehicle>
    <vehicle id="flow3.25" depart="128.58" color="blue">
        <route edges="edg9 edg14 edg17 edg15"/>
    </vehicle>
    <vehicle id="flow7.25" depart="128.58" color="white">
        <route edges="edg21 edg18 edg20"/>
    </vehicle>
    <vehicle id="flow5.36" depart="129.60" color="magenta">
        <route edges="edg6 edg12 edg15"/>
    </vehicle>
    <vehicle id="flow6.18" depart="129.60" color="cyan">
        <route edges="edg16 edg22"/>
    </vehicle>
    <vehicle id="flow4.40" depart="130.92" color="yellow">
        <route edges="edg19 edg24"/>
    </vehicle>
    <vehicle id="flow1.22" depart="132.00" color="red">
        <route edges="edg2 edg5"/>
    </vehicle>
    <vehicle id="flow2.33" depart="132.00" color="green">
        <route edges="edg4 edg10"/>
    </vehicle>
    <vehicle id="flow8.22" depart="132.00" color="77,179,102">
        <route edges="edg23 edg20"/>
    </vehicle>
    <vehicle id="flow5.37" depart="133.20" color="magenta">
        <route edges="edg6 edg8 edg10"/>
    </vehicle>
    <vehicle id="flow3.26" depart="133.72" color="blue">
        <route edges="edg9 edg7 edg12 edg15"/>
    </vehicle>
    <vehicle id="flow7.26" depart="133.72" color="white">
        <route edges="edg21 edg11 edg8 edg14 edg24"/>
    </vehicle>
    <vehicle id="flow4.41" depart="134.19" color="yellow">
        <route edges="edg19 edg17 edg22"/>
    </vehicle>
    <vehicle id="flow2.34" depart="136.00" color="green">
        <route edges="edg4 edg10"/>
    </vehicle>
    <vehicle id="flow5.38" depart="136.80" color="magenta">
        <route edges="edg6 edg1"/>
    </vehicle>
    <vehicle id="flow6.19" depart="136.80" color="cyan">
        <route edges="edg16 edg18 edg24"/>
    </vehicle>
    <vehicle id="flow4.42" depart="137.47" color="yellow">
        <route edges="edg19 edg17 edg22"/>
    </vehicle>
    <vehicle id="flow1.23" depart="138.00" color="red">
        <route edges="edg2 edg12 edg18 edg24"/>
    </vehicle>
    <vehicle id="flow8.23" depart="138.00" color="77,179,102">
        <route edges="edg23 edg17 edg11 edg8 edg3"/>
    </vehicle>
    <vehicle id="flow3.27" depart="138.86" color="blue">
        <route edges="edg9 edg14 edg17 edg22"/>
    </vehicle>
    <vehicle id="flow7.27" depart="138.86" color="white">
        <route edges="edg21 edg18 edg24"/>
    </vehicle>
    <vehicle id="flow2.35" depart="140.00" color="green">
        <route edges="edg4 edg7 edg12 edg22"/>
    </vehicle>
    <vehicle id="flow5.39" depart="140.40" color="magenta">
        <route edges="edg6 edg1"/>
    </vehicle>
    <vehicle id="flow4.43" depart="140.74" color="yellow">
        <route edges="edg19 edg24"/>
    </vehicle>
    <vehicle id="flow1.24" depart="144.00" color="red">
        <route edges="edg2 edg8 edg3"/>
    </vehicle>
    <vehicle id="flow2.36" depart="144.00" color="green">
        <route edges="edg4 edg7 edg12 edg18 edg24"/>
    </vehicle>
    <vehicle id="flow5.40" depart="144.00" color="magenta">
        <route edges="edg6 edg1"/>
    </vehicle>
    <vehicle id="flow6.20" depart="144.00" color="cyan">
        <route edges="edg16 edg18 edg13 edg7 edg1"/>
    </vehicle>
    <vehicle id="flow8.24" depart="144.00" color="77,179,102">
        <route edges="edg23 edg20"/>
    </vehicle>
    <vehicle id="flow3.28" depart="144.00" color="blue">
        <route edges="edg9 edg3"/>
    </vehicle>
    <vehicle id="flow7.28" depart="144.00" color="white">
        <route edges="edg21 edg18 edg13 edg3"/>
    </vehicle>
    <vehicle id="flow4.44" depart="144.01" color="yellow">
        <route edges="edg19 edg17 edg15"/>
    </vehicle>
    <vehicle id="flow4.45" depart="147.29" color="yellow">
        <route edges="edg19 edg24"/>
    </vehicle>
    <vehicle id="flow5.41" depart="147.60" color="magenta">
        <route edges="edg6 edg1"/>
    </vehicle>
    <vehicle id="flow2.37" depart="148.00" color="green">
        <route edges="edg4 edg10"/>
    </vehicle>
    <vehicle id="flow3.29" depart="149.15" color="blue">