<?xml version="1.0" encoding="UTF-8"?>

<!-- generated on 05/27/23 20:20:19 by Eclipse SUMO jtrrouter Version 1.8.0
<configuration xmlns:xsi="http://www.w3.org/2001/XMLSchema-instance" xsi:noNamespaceSchemaLocation="http://sumo.dlr.de/xsd/jtrrouterConfiguration.xsd">

    <input>
        <net-file value="test_2.net.xml"/>
        <route-files value="test_2demo.rou.xml"/>
        <turn-ratio-files value="turn.xml"/>
    </input>

    <output>
        <output-file value="test_2.rou.xml"/>
    </output>

    <processing>
        <no-internal-links value="true"/>
    </processing>

    <time>
        <begin value="0"/>
        <end value="2000"/>
    </time>

</configuration>
-->

<routes xmlns:xsi="http://www.w3.org/2001/XMLSchema-instance" xsi:noNamespaceSchemaLocation="http://sumo.dlr.de/xsd/routes_file.xsd">
    <vehicle id="flow1.0" depart="0.00" color="red">
        <route edges="edg2 edg8 edg3"/>
    </vehicle>
    <vehicle id="flow2.0" depart="0.00" color="green">
        <route edges="edg4 edg10"/>
    </vehicle>
    <vehicle id="flow3.0" depart="0.00" color="blue">
        <route edges="edg9 edg3"/>
    </vehicle>
    <vehicle id="flow4.0" depart="0.00" color="yellow">
        <route edges="edg19 edg24"/>
    </vehicle>
    <vehicle id="flow5.0" depart="0.00" color="magenta">
        <route edges="edg6 edg1"/>
    </vehicle>
    <vehicle id="flow6.0" depart="0.00" color="cyan">
        <route edges="edg16 edg22"/>
    </vehicle>
    <vehicle id="flow7.0" depart="0.00" color="white">
        <route edges="edg21 edg11 edg5"/>
    </vehicle>
    <vehicle id="flow8.0" depart="0.00" color="77,179,102">
        <route edges="edg23 edg17 edg11 edg8 edg14 edg24"/>
    </vehicle>
    <vehicle id="flow4.1" depart="6.55" color="yellow">
        <route edges="edg19 edg24"/>
    </vehicle>
    <vehicle id="flow5.1" depart="7.20" color="magenta">
        <route edges="edg6 edg1"/>
    </vehicle>
    <vehicle id="flow2.1" depart="8.00" color="green">
        <route edges="edg4 edg10"/>
    </vehicle>
    <vehicle id="flow3.1" depart="10.29" color="blue">
        <route edges="edg9 edg7 edg1"/>
    </vehicle>
    <vehicle id="flow7.1" depart="10.29" color="white">
        <route edges="edg21 edg18 edg13 edg3"/>
    </vehicle>
    <vehicle id="flow1.1" depart="12.00" color="red">
        <route edges="edg2 edg12 edg18 edg24"/>
    </vehicle>
    <vehicle id="flow8.1" depart="12.00" color="77,179,102">
        <route edges="edg23 edg20"/>
    </vehicle>
    <vehicle id="flow4.2" depart="13.09" color="yellow">
        <route edges="edg19 edg24"/>
    </vehicle>
    <vehicle id="flow5.2" depart="14.40" color="magenta">
        <route edges="edg6 edg12 edg18 edg13 edg10"/>
    </vehicle>
    <vehicle id="flow6.1" depart="14.40" color="cyan">
        <route edges="edg16 edg18 edg24"/>
    </vehicle>
    <vehicle id="flow2.2" depart="16.00" color="green">
        <route edges="edg4 edg10"/>
    </vehicle>
    <vehicle id="flow4.3" depart="19.64" color="yellow">
        <route edges="edg19 edg24"/>
    </vehicle>
    <vehicle id="flow3.2" depart="20.57" color="blue">
        <route edges="edg9 edg14 edg24"/>
    </vehicle>
    <vehicle id="flow7.2" depart="20.57" color="white">
        <route edges="edg21 edg15"/>
    </vehicle>
    <vehicle id="flow5.3" depart="21.60" color="magenta">
        <route edges="edg6 edg1"/>
    </vehicle>
    <vehicle id="flow1.2" depart="24.00" color="red">
        <route edges="edg2 edg12 edg18 edg24"/>
    </vehicle>
    <vehicle id="flow2.3" depart="24.00" color="green">
        <route edges="edg4 edg10"/>
    </vehicle>
    <vehicle id="flow8.2" depart="24.00" color="77,179,102">
        <route edges="edg23 edg13 edg10"/>
    </vehicle>
    <vehicle id="flow4.4" depart="26.18" color="yellow">
        <route edges="edg19 edg24"/>
    </vehicle>
    <vehicle id="flow5.4" depart="28.80" color="magenta">
        <route edges="edg6 edg1"/>
    </vehicle>
    <vehicle id="flow6.2" depart="28.80" color="cyan">
        <route edges="edg16 edg22"/>
    </vehicle>
    <vehicle id="flow3.3" depart="30.86" color="blue">
        <route edges="edg9 edg14 edg24"/>
    </vehicle>
    <vehicle id="flow7.3" depart="30.86" color="white">
        <route edges="edg21 edg18 edg24"/>
    </vehicle>
    <vehicle id="flow2.4" depart="32.00" color="green">
        <route edges="edg4 edg14 edg24"/>
    </vehicle>
    <vehicle id="flow4.5" depart="32.73" color="yellow">
        <route edges="edg19 edg24"/>
    </vehicle>
    <vehicle id="flow1.3" depart="36.00" color="red">
        <route edges="edg2 edg12 edg18 edg24"/>
    </vehicle>
    <vehicle id="flow5.5" depart="36.00" color="magenta">
        <route edges="edg6 edg1"/>
    </vehicle>
    <vehicle id="flow8.3" depart="36.00" color="77,179,102">
        <route edges="edg23 edg20"/>
    </vehicle>
    <vehicle id="flow4.6" depart="39.27" color="yellow">
        <route edges="edg19 edg13 edg3"/>
    </vehicle>
    <vehicle id="flow2.5" depart="40.00" color="green">
        <route edges="edg4 edg10"/>
    </vehicle>
    <vehicle id="flow3.4" depart="41.14" color="blue">
        <route edges="edg9 edg14 edg17 edg15"/>
    </vehicle>
    <vehicle id="flow7.4" depart="41.14" color="white">
        <route edges="edg21 edg18 edg13 edg10"/>
    </vehicle>
    <vehicle id="flow5.6" depart="43.20" color="magenta">
        <route edges="edg6 edg8 edg10"/>
    </vehicle>
    <vehicle id="flow6.3" depart="43.20" color="cyan">
        <route edges="edg16 edg18 edg13 edg3"/>
    </vehicle>
    <vehicle id="flow4.7" depart="45.82" color="yellow">
        <route edges="edg19 edg13 edg10"/>
    </vehicle>
    <vehicle id="flow1.4" depart="48.00" color="red">
        <route edges="edg2 edg12 edg15"/>
    </vehicle>
    <vehicle id="flow2.6" depart="48.00" color="green">
        <route edges="edg4 edg7 edg1"/>
    </vehicle>
    <vehicle id="flow8.4" depart="48.00" color="77,179,102">
        <route edges="edg23 edg13 edg10"/>
    </vehicle>
    <vehicle id="flow5.7" depart="50.40" color="magenta">
        <route edges="edg6 edg12 edg18 edg24"/>
    </vehicle>
    <vehicle id="flow3.5" depart="51.43" color="blue">
        <route edges="edg9 edg3"/>
    </vehicle>
    <vehicle id="flow7.5" depart="51.43" color="white">
        <route edges="edg21 edg15"/>
    </vehicle>
    <vehicle id="flow4.8" depart="52.36" color="yellow">
        <route edges="edg19 edg24"/>
    </vehicle>
    <vehicle id="flow2.7" depart="56.00" color="green">
        <route edges="edg4 edg14 edg20"/>
    </vehicle>
    <vehicle id="flow5.8" depart="57.60" color="magenta">
        <route edges="edg6 edg12 edg22"/>
    </vehicle>
    <vehicle id="flow6.4" depart="57.60" color="cyan">
        <route edges="edg16 edg11 edg1"/>
    </vehicle>
    <vehicle id="flow4.9" depart="58.91" color="yellow">
        <route edges="edg19 edg13 edg7 edg12 edg22"/>
    </vehicle>
    <vehicle id="flow1.5" depart="60.00" color="red">
        <route edges="edg2 edg5"/>
    </vehicle>
    <vehicle id="flow8.5" depart="60.00" color="77,179,102">
        <route edges="edg23 edg17 edg22"/>
    </vehicle>
    <vehicle id="flow3.6" depart="61.72" color="blue">
        <route edges="edg9 edg3"/>
    </vehicle>
    <vehicle id="flow7.6" depart="61.72" color="white">
        <route edges="edg21 edg18 edg24"/>
    </vehicle>
    <vehicle id="flow2.8" depart="64.00" color="green">
        <route edges="edg4 edg7 edg1"/>
    </vehicle>
    <vehicle id="flow5.9" depart="64.80" color="magenta">
        <route edges="edg6 edg12 edg18 edg24"/>
    </vehicle>
    <vehicle id="flow4.10" depart="65.45" color="yellow">
        <route edges="edg19 edg13 edg3"/>
    </vehicle>
    <vehicle id="flow4.11" depart="72.00" color="yellow">
        <route edges="edg19 edg24"/>
    </vehicle>
    <vehicle id="flow1.6" depart="72.00" color="red">
        <route edges="edg2 edg8 edg10"/>
    </vehicle>
    <vehicle id="flow2.9" depart="72.00" color="green">
        <route edges="edg4 edg7 edg1"/>
    </vehicle>
    <vehicle id="flow5.10" depart="72.00" color="magenta">
        <route edges="edg6 edg8 edg10"/>
    </vehicle>
    <vehicle id="flow6.5" depart="72.00" color="cyan">
        <route edges="edg16 edg22"/>
    </vehicle>
    <vehicle id="flow8.6" depart="72.00" color="77,179,102">
        <route edges="edg23 edg17 edg15"/>
    </vehicle>
    <vehicle id="flow3.7" depart="72.00" color="blue">
        <route edges="edg9 edg14 edg20"/>
    </vehicle>
    <vehicle id="flow7.7" depart="72.00" color="white">
        <route edges="edg21 edg18 edg24"/>
    </vehicle>
    <vehicle id="flow4.12" depart="78.54" color="yellow">
        <route edges="edg19 edg24"/>
    </vehicle>
    <vehicle id="flow5.11" depart="79.20" color="magenta">
        <route edges="edg6 edg1"/>
    </vehicle>
    <vehicle id="flow2.10" depart="80.00" color="green">
        <route edges="edg4 edg7 edg1"/>
    </vehicle>
    <vehicle id="flow3.8" depart="82.29" color="blue">
        <route edges="edg9 edg3"/>
    </vehicle>
    <vehicle id="flow7.8" depart="82.29" color="white">
        <route edges="edg21 edg15"/>
    </vehicle>
    <vehicle id="flow1.7" depart="84.00" color="red">
        <route edges="edg2 edg5"/>
    </vehicle>
    <vehicle id="flow8.7" depart="84.00" color="77,179,102">
        <route edges="edg23 edg13 edg3"/>
    </vehicle>
    <vehicle id="flow4.13" depart="85.09" color="yellow">
        <route edges="edg19 edg24"/>
    </vehicle>
    <vehicle id="flow5.12" depart="86.40" color="magenta">
        <route edges="edg6 edg12 edg18 edg13 edg7 edg5"/>
    </vehicle>
    <vehicle id="flow6.6" depart="86.40" color="cyan">
        <route edges="edg16 edg22"/>
    </vehicle>
    <vehicle id="flow2.11" depart="88.00" color="green">
        <route edges="edg4 edg7 edg12 edg15"/>
    </vehicle>
    <vehicle id="flow4.14" depart="91.63" color="yellow">
        <route edges="edg19 edg24"/>
    </vehicle>
    <vehicle id="flow3.9" depart="92.57" color="blue">
        <route edges="edg9 edg7 edg12 edg22"/>
    </vehicle>
    <vehicle id="flow7.9" depart="92.57" color="white">
        <route edges="edg21 edg11 edg1"/>
    </vehicle>
    <vehicle id="flow5.13" depart="93.60" color="magenta">
        <route edges="edg6 edg8 edg14 edg20"/>
    </vehicle>
    <vehicle id="flow1.8" depart="96.00" color="red">
        <route edges="edg2 edg12 edg18 edg24"/>
    </vehicle>
    <vehicle id="flow2.12" depart="96.00" color="green">
        <route edges="edg4 edg10"/>
    </vehicle>
    <vehicle id="flow8.8" depart="96.00" color="77,179,102">
        <route edges="edg23 edg17 edg22"/>
    </vehicle>
    <vehicle id="flow4.15" depart="98.18" color="yellow">
        <route edges="edg19 edg17 edg11 edg8 edg3"/>
    </vehicle>
    <vehicle id="flow5.14" depart="100.80" color="magenta">
        <route edges="edg6 edg12 edg22"/>
    </vehicle>
    <vehicle id="flow6.7" depart="100.80" color="cyan">
        <route edges="edg16 edg18 edg24"/>
    </vehicle>
    <vehicle id="flow3.10" depart="102.86" color="blue">
        <route edges="edg9 edg7 edg12 edg22"/>
    </vehicle>
    <vehicle id="flow7.10" depart="102.86" color="white">
        <route edges="edg21 edg15"/>
    </vehicle>
    <vehicle id="flow2.13" depart="104.00" color="green">
        <route edges="edg4 edg10"/>
    </vehicle>
    <vehicle id="flow4.16" depart="104.72" color="yellow">
        <route edges="edg19 edg13 edg3"/>
    </vehicle>
    <vehicle id="flow1.9" depart="108.00" color="red">
        <route edges="edg2 edg12 edg22"/>
    </vehicle>
    <vehicle id="flow5.15" depart="108.00" color="magenta">
        <route edges="edg6 edg12 edg18 edg24"/>
    </vehicle>
    <vehicle id="flow8.9" depart="108.00" color="77,179,102">
        <route edges="edg23 edg13 edg3"/>
    </vehicle>
    <vehicle id="flow4.17" depart="111.27" color="yellow">
        <route edges="edg19 edg13 edg7 edg1"/>
    </vehicle>
    <vehicle id="flow2.14" depart="112.00" color="green">
        <route edges="edg4 edg10"/>
    </vehicle>
    <vehicle id="flow3.11" depart="113.15" color="blue">
        <route edges="edg9 edg14 edg17 edg11 edg8 edg10"/>
    </vehicle>
    <vehicle id="flow7.11" depart="113.15" color="white">
        <route edges="edg21 edg11 edg8 edg14 edg17 edg15"/>
    </vehicle>
    <vehicle id="flow5.16" depart="115.20" color="magenta">
        <route edges="edg6 edg8 edg10"/>
    </vehicle>
    <vehicle id="flow6.8" depart="115.20" color="cyan">
        <route edges="edg16 edg22"/>
    </vehicle>
    <vehicle id="flow4.18" depart="117.81" color="yellow">
        <route edges="edg19 edg24"/>
    </vehicle>
    <vehicle id="flow1.10" depart="120.00" color="red">
        <route edges="edg2 edg8 edg14 edg17 edg15"/>
    </vehicle>
    <vehicle id="flow2.15" depart="120.00" color="green">
        <route edges="edg4 edg10"/>
    </vehicle>
    <vehicle id="flow8.10" depart="120.00" color="77,179,102">
        <route edges="edg23 edg17 edg22"/>
    </vehicle>
    <vehicle id="flow5.17" depart="122.40" color="magenta">
        <route edges="edg6 edg12 edg15"/>
    </vehicle>
    <vehicle id="flow3.12" depart="123.43" color="blue">
        <route edges="edg9 edg3"/>
    </vehicle>
    <vehicle id="flow7.12" depart="123.43" color="white">
        <route edges="edg21 edg11 edg5"/>
    </vehicle>
    <vehicle id="flow4.19" depart="124.36" color="yellow">
        <route edges="edg19 edg13 edg3"/>
    </vehicle>
    <vehicle id="flow2.16" depart="128.00" color="green">
        <route edges="edg4 edg7 edg5"/>
    </vehicle>
    <vehicle id="flow5.18" depart="129.60" color="magenta">
        <route edges="edg6 edg12 edg15"/>
    </vehicle>
    <vehicle id="flow6.9" depart="129.60" color="cyan">
        <route edges="edg16 edg22"/>
    </vehicle>
    <vehicle id="flow4.20" depart="130.90" color="yellow">
        <route edges="edg19 edg17 edg11 edg5"/>
    </vehicle>
    <vehicle id="flow1.11" depart="132.00" color="red">
        <route edges="edg2 edg12 edg18 edg13 edg3"/>
    </vehicle>
    <vehicle id="flow8.11" depart="132.00" color="77,179,102">
        <route edges="edg23 edg20"/>
    </vehicle>
    <vehicle id="flow3.13" depart="133.72" color="blue">
        <route edges="edg9 edg7 edg1"/>
    </vehicle>
    <vehicle id="flow7.13" depart="133.72" color="white">
        <route edges="edg21 edg18 edg13 edg10"/>
    </vehicle>
    <vehicle id="flow2.17" depart="136.00" color="green">
        <route edges="edg4 edg10"/>
    </vehicle>
    <vehicle id="flow5.19" depart="136.80" color="magenta">
        <route edges="edg6 edg1"/>
    </vehicle>
    <vehicle id="flow4.21" depart="137.45" color="yellow">
        <route edges="edg19 edg17 edg11 edg8 edg3"/>
    </vehicle>
    <vehicle id="flow4.22" depart="143.99" color="yellow">
        <route edges="edg19 edg17 edg22"/>
    </vehicle>
    <vehicle id="flow1.12" depart="144.00" color="red">
        <route edges="edg2 edg5"/>
    </vehicle>
    <vehicle id="flow2.18" depart="144.00" color="green">
        <route edges="edg4 edg10"/>
    </vehicle>
    <vehicle id="flow5.20" depart="144.00" color="magenta">
        <route edges="edg6 edg1"/>
    </vehicle>
    <vehicle id="flow6.10" depart="144.00" color="cyan">
        <route edges="edg16 edg18 edg13 edg10"/>
    </vehicle>
    <vehicle id="flow8.12" depart="144.00" color="77,179,102">
        <route edges="edg23 edg13 edg7 edg1"/>
    </vehicle>
    <vehicle id="flow3.14" depart="144.00" color="blue">
        <route edges="edg9 edg3"/>
    </vehicle>
    <vehicle id="flow7.14" depart="144.00" color="white">
        <route edges="edg21 edg15"/>
    </vehicle>
    <vehicle id="flow4.23" depart="150.54" color="yellow">
        <route edges="edg19 edg13 edg7 edg12 edg18 edg24"/>
    </vehicle>
    <vehicle id="flow5.21" depart="151.20" color="magenta">
        <route edges="edg6 edg12 edg18 edg24"/>
    </vehicle>
    <vehicle id="flow2.19" depart="152.00" color="green">
        <route edges="edg4 edg14 edg20"/>
    </vehicle>
    <vehicle id="flow3.15" depart="154.29" color="blue">
        <route edges="edg9 edg3"/>
    </vehicle>
    <vehicle id="flow7.15" depart="154.29" color="white">
        <route edges="edg21 edg18 edg20"/>
    </vehicle>
    <vehicle id="flow1.13" depart="156.00" color="red">
        <route edges="edg2 edg12 edg15"/>
    </vehicle>
    <vehicle id="flow8.13" depart="156.00" color="77,179,102">
        <route edges="edg23 edg13 edg3"/>
    </vehicle>
    <vehicle id="flow4.24" depart="157.08" color="yellow">
        <route edges="edg19 edg13 edg7 edg5"/>
    </vehicle>
    <vehicle id="flow5.22" depart="158.40" color="magenta">
        <route edges="edg6 edg12 edg15"/>
    </vehicle>
    <vehicle id="flow6.11" depart="158.40" color="cyan">
        <route edges="edg16 edg22"/>
    </vehicle>
    <vehicle id="flow2.20" depart="160.00" color="green">
        <route edges="edg4 edg7 edg1"/>
    </vehicle>
    <vehicle id="flow4.25" depart="163.63" color="yellow">
        <route edges="edg19 edg17 edg22"/>
    </vehicle>
    <vehicle id="flow3.16" depart="164.58" color="blue">
        <route edges="edg9 edg7 edg5"/>
    </vehicle>
    <vehicle id="flow7.16" depart="164.58" color="white">
        <route edges="edg21 edg18 edg13 edg3"/>
    </vehicle>
    <vehicle id="flow5.23" depart="165.60" color="magenta">
        <route edges="edg6 edg12 edg18 edg13 edg3"/>
    </vehicle>
    <vehicle id="flow1.14" depart="168.00" color="red">
        <route edges="edg2 edg8 edg3"/>
    </vehicle>
    <vehicle id="flow2.21" depart="168.00" color="green">
        <route edges="edg4 edg7 edg1"/>
    </vehicle>
    <vehicle id="flow8.14" depart="168.00" color="77,179,102">
        <route edges="edg23 edg20"/>
    </vehicle>
    <vehicle id="flow4.26" depart="170.17" color="yellow">
        <route edges="edg19 edg17 edg15"/>
    </vehicle>
    <vehicle id="flow5.24" depart="172.80" color="magenta">
        <route edges="edg6 edg1"/>
    </vehicle>
    <vehicle id="flow6.12" depart="172.80" color="cyan">
        <route edges="edg16 edg22"/>
    </vehicle>
    <vehicle id="flow3.17" depart="174.86" color="blue">
        <route edges="edg9 edg7 edg12 edg18 edg20"/>
    </vehicle>
    <vehicle id="flow7.17" depart="174.86" color="white">
        <route edges="edg21 edg18 edg24"/>
    </vehicle>
    <vehicle id="flow2.22" depart="176.00" color="green">
        <route edges="edg4 edg7 edg12 edg15"/>
    </vehicle>
    <vehicle id="flow4.27" depart="176.72" color="yellow">
        <route edges="edg19 edg17 edg22"/>
    </vehicle>
    <vehicle id="flow1.15" depart="180.00" color="red">
        <route edges="edg2 edg8 edg10"/>
    </vehicle>
    <vehicle id="flow5.25" depart="180.00" color="magenta">
        <route edges="edg6 edg1"/>
    </vehicle>
    <vehicle id="flow8.15" depart="180.00" color="77,179,102">
        <route edges="edg23 edg20"/>
    </vehicle>
    <vehicle id="flow4.28" depart="183.26" color="yellow">
        <route edges="edg19 edg17 edg11 edg8 edg3"/>
    </vehicle>
    <vehicle id="flow2.23" depart="184.00" color="green">
        <route edges="edg4 edg10"/>
    </vehicle>
    <vehicle id="flow3.18" depart="185.15" color="blue">
        <route edges="edg9 edg14 edg17 edg11 edg1"/>
    </vehicle>
    <vehicle id="flow7.18" depart="185.15" color="white">
        <route edges="edg21 edg15"/>
    </vehicle>
    <vehicle id="flow5.26" depart="187.20" color="magenta">
        <route edges="edg6 edg8 edg3"/>
    </vehicle>
    <vehicle id="flow6.13" depart="187.20" color="cyan">
        <route edges="edg16 edg22"/>
    </vehicle>
    <vehicle id="flow4.29" depart="189.81" color="yellow">
        <route edges="edg19 edg13 edg7 edg5"/>
    </vehicle>
    <vehicle id="flow1.16" depart="192.00" color="red">
        <route edges="edg2 edg5"/>
    </vehicle>
    <vehicle id="flow2.24" depart="192.00" color="green">
        <route edges="edg4 edg10"/>
    </vehicle>
    <vehicle id="flow8.16" depart="192.00" color="77,179,102">
        <route edges="edg23 edg17 edg15"/>
    </vehicle>
    <vehicle id="flow5.27" depart="194.40" color="magenta">
        <route edges="edg6 edg8 edg10"/>
    </vehicle>
    <vehicle id="flow3.19" depart="195.43" color="blue">
        <route edges="edg9 edg14 edg24"/>
    </vehicle>
    <vehicle id="flow7.19" depart="195.43" color="white">
        <route edges="edg21 edg11 edg1"/>
    </vehicle>
    <vehicle id="flow4.30" depart="196.35" color="yellow">
        <route edges="edg19 edg13 edg10"/>
    </vehicle>
    <vehicle id="flow2.25" depart="200.00" color="green">
        <route edges="edg4 edg7 edg12 edg22"/>
    </vehicle>
    <vehicle id="flow5.28" depart="201.60" color="magenta">
        <route edges="edg6 edg8 edg10"/>
    </vehicle>
    <vehicle id="flow6.14" depart="201.60" color="cyan">
        <route edges="edg16 edg22"/>
    </vehicle>
    <vehicle id="flow4.31" depart="202.90" color="yellow">
        <route edges="edg19 edg17 edg11 edg5"/>
    </vehicle>
    <vehicle id="flow1.17" depart="204.00" color="red">
        <route edges="edg2 edg5"/>
    </vehicle>
    <vehicle id="flow8.17" depart="204.00" color="77,179,102">
        <route edges="edg23 edg20"/>
    </vehicle>
    <vehicle id="flow3.20" depart="205.72" color="blue">
        <route edges="edg9 edg14 edg20"/>
    </vehicle>
    <vehicle id="flow7.20" depart="205.72" color="white">
        <route edges="edg21 edg11 edg1"/>
    </vehicle>
    <vehicle id="flow2.26" depart="208.00" color="green">
        <route edges="edg4 edg7 edg5"/>
    </vehicle>
    <vehicle id="flow5.29" depart="208.80" color="magenta">
        <route edges="edg6 edg12 edg22"/>
    </vehicle>
    <vehicle id="flow4.32" depart="209.44" color="yellow">
        <route edges="edg19 edg24"/>
    </vehicle>
    <vehicle id="flow4.33" depart="215.99" color="yellow">
        <route edges="edg19 edg24"/>
    </vehicle>
    <vehicle id="flow1.18" depart="216.00" color="red">
        <route edges="edg2 edg5"/>
    </vehicle>
    <vehicle id="flow2.27" depart="216.00" color="green">
        <route edges="edg4 edg14 edg17 edg15"/>
    </vehicle>
    <vehicle id="flow5.30" depart="216.00" color="magenta">
        <route edges="edg6 edg8 edg3"/>
    </vehicle>
    <vehicle id="flow6.15" depart="216.00" color="cyan">
        <route edges="edg16 edg18 edg24"/>
    </vehicle>
    <vehicle id="flow8.18" depart="216.00" color="77,179,102">
        <route edges="edg23 edg13 edg3"/>
    </vehicle>
    <vehicle id="flow3.21" depart="216.01" color="blue">
        <route edges="edg9 edg14 edg17 edg22"/>
    </vehicle>
    <vehicle id="flow7.21" depart="216.01" color="white">
        <route edges="edg21 edg18 edg13 edg10"/>
    </vehicle>
    <vehicle id="flow4.34" depart="222.53" color="yellow">
        <route edges="edg19 edg13 edg7 edg5"/>
    </vehicle>
    <vehicle id="flow5.31" depart="223.20" color="magenta">
        <route edges="edg6 edg12 edg18 edg24"/>
    </vehicle>
    <vehicle id="flow2.28" depart="224.00" color="green">
        <route edges="edg4 edg14 edg17 edg22"/>
    </vehicle>
    <vehicle id="flow3.22" depart="226.29" color="blue">
        <route edges="edg9 edg7 edg12 edg18 edg24"/>
    </vehicle>
    <vehicle id="flow7.22" depart="226.29" color="white">
        <route edges="edg21 edg15"/>
    </vehicle>
    <vehicle id="flow1.19" depart="228.00" color="red">
        <route edges="edg2 edg5"/>
    </vehicle>
    <vehicle id="flow8.19" depart="228.00" color="77,179,102">
        <route edges="edg23 edg13 edg3"/>
    </vehicle>
    <vehicle id="flow4.35" depart="229.08" color="yellow">
        <route edges="edg19 edg24"/>
    </vehicle>
    <vehicle id="flow5.32" depart="230.40" color="magenta">
        <route edges="edg6 edg8 edg10"/>
    </vehicle>
    <vehicle id="flow6.16" depart="230.40" color="cyan">
        <route edges="edg16 edg11 edg1"/>
    </vehicle>
    <vehicle id="flow2.29" depart="232.00" color="green">
        <route edges="edg4 edg7 edg5"/>
    </vehicle>
    <vehicle id="flow4.36" depart="235.62" color="yellow">
        <route edges="edg19 edg13 edg3"/>
    </vehicle>
    <vehicle id="flow3.23" depart="236.58" color="blue">
        <route edges="edg9 edg14 edg17 edg11 edg8 edg3"/>
    </vehicle>
    <vehicle id="flow7.23" depart="236.58" color="white">
        <route edges="edg21 edg18 edg13 edg10"/>
    </vehicle>
    <vehicle id="flow5.33" depart="237.60" color="magenta">
        <route edges="edg6 edg1"/>
    </vehicle>
    <vehicle id="flow1.20" depart="240.00" color="red">
        <route edges="edg2 edg8 edg3"/>
    </vehicle>
    <vehicle id="flow2.30" depart="240.00" color="green">
        <route edges="edg4 edg7 edg12 edg22"/>
    </vehicle>
    <vehicle id="flow8.20" depart="240.00" color="77,179,102">
        <route edges="edg23 edg13 edg7 edg5"/>
    </vehicle>
    <vehicle id="flow4.37" depart="242.17" color="yellow">
        <route edges="edg19 edg24"/>
    </vehicle>
    <vehicle id="flow5.34" depart="244.80" color="magenta">
        <route edges="edg6 edg12 edg22"/>
    </vehicle>
    <vehicle id="flow6.17" depart="244.80" color="cyan">
        <route edges="edg16 edg18 edg24"/>
    </vehicle>
    <vehicle id="flow3.24" depart="246.86" color="blue">
        <route edges="edg9 edg14 edg17 edg11 edg8 edg10"/>
    </vehicle>
    <vehicle id="flow7.24" depart="246.86" color="white">
        <route edges="edg21 edg18 edg13 edg10"/>
    </vehicle>
    <vehicle id="flow2.31" depart="248.00" color="green">
        <route edges="edg4 edg14 edg24"/>
    </vehicle>
    <vehicle id="flow4.38" depart="248.71" color="yellow">
        <route edges="edg19 edg17 edg15"/>
    </vehicle>
    <vehicle id="flow1.21" depart="252.00" color="red">
        <route edges="edg2 edg12 edg22"/>
    </vehicle>
    <vehicle id="flow5.35" depart="252.00" color="magenta">
        <route edges="edg6 edg12 edg18 edg20"/>
    </vehicle>
    <vehicle id="flow8.21" depart="252.00" color="77,179,102">
        <route edges="edg23 edg20"/>
    </vehicle>
    <vehicle id="flow4.39" depart="255.26" color="yellow">
        <route edges="edg19 edg24"/>
    </vehicle>
    <vehicle id="flow2.32" depart="256.00" color="green">
        <route edges="edg4 edg10"/>
    </vehicle>
    <vehicle id="flow3.25" depart="257.15" color="blue">
        <route edges="edg9 edg7 edg12 edg15"/>
    </vehicle>
    <vehicle id="flow7.25" depart="257.15" color="white">
        <route edges="edg21 edg11 edg8 edg14 edg24"/>
    </vehicle>
    <vehicle id="flow5.36" depart="259.20" color="magenta">
        <route edges="edg6 edg12 edg22"/>
    </vehicle>
    <vehicle id="flow6.18" depart="259.20" color="cyan">
        <route edges="edg16 edg11 edg1"/>
    </vehicle>
    <vehicle id="flow4.40" depart="261.80" color="yellow">
        <route edges="edg19 edg24"/>
    </vehicle>
    <vehicle id="flow1.22" depart="264.00" color="red">
        <route edges="edg2 edg5"/>
    </vehicle>
    <vehicle id="flow2.33" depart="264.00" color="green">
        <route edges="edg4 edg10"/>
    </vehicle>
    <vehicle id="flow8.22" depart="264.00" color="77,179,102">
        <route edges="edg23 edg17 edg11 edg5"/>
    </vehicle>
    <vehicle id="flow5.37" depart="266.40" color="magenta">
        <route edges="edg6 edg8 edg3"/>
    </vehicle>
    <vehicle id="flow3.26" depart="267.44" color="blue">
        <route edges="edg9 edg14 edg24"/>
    </vehicle>
    <vehicle id="flow7.26" depart="267.44" color="white">
        <route edges="edg21 edg18 edg13 edg10"/>
    </vehicle>
    <vehicle id="flow4.41" depart="268.35" color="yellow">
        <route edges="edg19 edg24"/>
    </vehicle>
    <vehicle id="flow2.34" depart="272.00" color="green">
        <route edges="edg4 edg7 edg5"/>
    </vehicle>
    <vehicle id="flow5.38" depart="273.60" color="magenta">
        <route edges="edg6 edg8 edg3"/>
    </vehicle>
    <vehicle id="flow6.19" depart="273.60" color="cyan">
        <route edges="edg16 edg22"/>
    </vehicle>
    <vehicle id="flow4.42" depart="274.89" color="yellow">
        <route edges="edg19 edg13 edg3"/>
    </vehicle>
    <vehicle id="flow1.23" depart="276.00" color="red">
        <route edges="edg2 edg8 edg3"/>
    </vehicle>
    <vehicle id="flow8.23" depart="276.00" color="77,179,102">
        <route edges="edg23 edg20"/>
    </vehicle>
    <vehicle id="flow3.27" depart="277.72" color="blue">
        <route edges="edg9 edg3"/>
    </vehicle>
    <vehicle id="flow7.27" depart="277.72" color="white">
        <route edges="edg21 edg15"/>
    </vehicle>
    <vehicle id="flow2.35" depart="280.00" color="green">
        <route edges="edg4 edg7 edg1"/>
    </vehicle>
    <vehicle id="flow5.39" depart="280.80" color="magenta">
        <route edges="edg6 edg8 edg10"/>
    </vehicle>
    <vehicle id="flow4.43" depart="281.44" color="yellow">
        <route edges="edg19 edg24"/>
    </vehicle>
    <vehicle id="flow4.44" depart="287.98" color="yellow">
        <route edges="edg19 edg13 edg7 edg12 edg22"/>
    </vehicle>
    <vehicle id="flow1.24" depart="288.00" color="red">
        <route edges="edg2 edg12 edg18 edg20"/>
    </vehicle>
    <vehicle id="flow2.36" depart="288.00" color="green">
        <route edges="edg4 edg14 edg24"/>
    </vehicle>
    <vehicle id="flow5.40" depart="288.00" color="magenta">
        <route edges="edg6 edg1"/>
    </vehicle>
    <vehicle id="flow6.20" depart="288.00" color="cyan">
        <route edges="edg16 edg11 edg1"/>
    </vehicle>
    <vehicle id="flow8.24" depart="288.00" color="77,179,102">
        <route edges="edg23 edg13 edg3"/>
    </vehicle>
    <vehicle id="flow3.28" depart="288.01" color="blue">
        <route edges="edg9 edg7 edg5"/>
    </vehicle>
    <vehicle id="flow7.28" depart="288.01" color="white">
        <route edges="edg21 edg18 edg20"/>
    </vehicle>
    <vehicle id="flow4.45" depart="294.53" color="yellow">
        <route edges="edg19 edg24"/>
    </vehicle>
    <vehicle id="flow5.41" depart="295.20" color="magenta">
        <route edges="edg6 edg1"/>
    </vehicle>