<?xml version="1.0" encoding="UTF-8"?>


<configuration xmlns:xsi="http://www.w3.org/2001/XMLSchema-instance" xsi:noNamespaceSchemaLocation="http://sumo.dlr.de/xsd/sumoConfiguration.xsd">

    <input>
        <net-file value="test_2.net.xml"/>
        <route-files value="test_2.rou.xml"/>
    </input>

    <time>
        <begin value="0"/>
        <end value="2000"/>
    </time>

</configuration>
