<?xml version="1.0" encoding="UTF-8"?>

<!-- generated on 05/04/23 15:37:04 by Eclipse SUMO netedit Version 1.8.0
<configuration xmlns:xsi="http://www.w3.org/2001/XMLSchema-instance" xsi:noNamespaceSchemaLocation="http://sumo.dlr.de/xsd/netconvertConfiguration.xsd">

    <input>
        <sumo-net-file value="D:\Applications\Veins_OMNeTpp_SUMO\Scenarios\SiouxFalls_test\SiouxFalls.net.xml"/>
    </input>

    <output>
        <output-file value="D:\Applications\Veins_OMNeTpp_SUMO\Scenarios\SiouxFalls_test\SiouxFalls.net.xml"/>
    </output>

    <processing>
        <geometry.min-radius.fix.railways value="false"/>
        <geometry.max-grade.fix value="false"/>
        <offset.disable-normalization value="true"/>
        <lefthand value="false"/>
    </processing>

    <junctions>
        <no-turnarounds value="true"/>
        <junctions.corner-detail value="5"/>
        <junctions.limit-turn-speed value="5.5"/>
        <rectangular-lane-cut value="false"/>
    </junctions>

    <pedestrian>
        <walkingareas value="false"/>
    </pedestrian>

    <report>
        <aggregate-warnings value="5"/>
    </report>

</configuration>
-->

<net version="1.6" junctionCornerDetail="5" limitTurnSpeed="5.50" xmlns:xsi="http://www.w3.org/2001/XMLSchema-instance" xsi:noNamespaceSchemaLocation="http://sumo.dlr.de/xsd/net_file.xsd">

    <location netOffset="0.00,0.00" convBoundary="-29.81,-31.76,8168.58,10150.85" origBoundary="-10000000000.00,-10000000000.00,10000000000.00,10000000000.00" projParameter="!"/>

    <edge id=":node_1_0" function="internal">
        <lane id=":node_1_0_0" index="0" speed="6.51" length="9.04" shape="10.40,10124.80 7.95,10125.15 6.19,10126.20 5.14,10127.95 4.78,10130.40"/>
    </edge>
    <edge id=":node_1_1" function="internal">
        <lane id=":node_1_1_0" index="0" speed="8.01" length="14.19" shape="10.40,10121.60 6.55,10122.15 3.79,10123.80 2.14,10126.55 1.58,10130.39"/>
    </edge>
    <edge id=":node_1_2" function="internal">
        <lane id=":node_1_2_0" index="0" speed="9.26" length="6.95" shape="10.40,10121.60 5.15,10120.85 3.74,10120.01"/>
    </edge>
    <edge id=":node_1_10" function="internal">
        <lane id=":node_1_10_0" index="0" speed="9.26" length="12.41" shape="3.74,10120.01 1.40,10118.60 -0.85,10114.85 -1.60,10109.60"/>
    </edge>
    <edge id=":node_1_3" function="internal">
        <lane id=":node_1_3_0" index="0" speed="6.51" length="9.03" shape="4.80,10109.60 5.15,10112.05 6.20,10113.80 7.95,10114.85 10.40,10115.20"/>
    </edge>
    <edge id=":node_1_4" function="internal">
        <lane id=":node_1_4_0" index="0" speed="20.95" length="20.79" shape="4.80,10109.60 4.78,10130.40"/>
        <lane id=":node_1_4_1" index="1" speed="20.95" length="20.79" shape="1.60,10109.60 1.58,10130.39"/>
    </edge>
    <edge id=":node_1_6" function="internal">
        <lane id=":node_1_6_0" index="0" speed="6.51" length="9.04" shape="-10.40,10115.22 -7.95,10114.86 -6.20,10113.81 -5.15,10112.05 -4.80,10109.60"/>
    </edge>
    <edge id=":node_1_7" function="internal">
        <lane id=":node_1_7_0" index="0" speed="20.95" length="20.79" shape="-10.40,10115.22 10.40,10115.20"/>
        <lane id=":node_1_7_1" index="1" speed="20.95" length="20.79" shape="-10.39,10118.42 10.40,10118.40"/>
    </edge>
    <edge id=":node_1_9" function="internal">
        <lane id=":node_1_9_0" index="0" speed="9.24" length="14.40" shape="-10.39,10118.42 -5.15,10119.16 -1.40,10121.40 0.84,10125.15 0.89,10125.51"/>
    </edge>
    <edge id=":node_1_11" function="internal">
        <lane id=":node_1_11_0" index="0" speed="9.24" length="4.93" shape="0.89,10125.51 1.58,10130.39"/>
    </edge>
    <edge id=":node_10_0" function="internal">
        <lane id=":node_10_0_0" index="0" speed="6.55" length="9.17" shape="3735.20,5950.57 3734.85,5948.05 3733.80,5946.24 3732.05,5945.16 3729.60,5944.80"/>
    </edge>
    <edge id=":node_10_1" function="internal">
        <lane id=":node_10_1_0" index="0" speed="28.00" length="30.43" shape="3735.20,5950.57 3735.20,5920.14"/>
        <lane id=":node_10_1_1" index="1" speed="28.00" length="30.43" shape="3738.40,5950.57 3738.40,5920.14"/>
    </edge>
    <edge id=":node_10_3" function="internal">
        <lane id=":node_10_3_0" index="0" speed="16.30" length="6.28" shape="3738.40,5950.57 3739.90,5944.65 3740.00,5944.51"/>
    </edge>
    <edge id=":node_10_4" function="internal">
        <lane id=":node_10_4_0" index="0" speed="12.14" length="5.01" shape="3738.40,5950.57 3740.00,5945.82"/>
    </edge>
    <edge id=":node_10_5" function="internal">
        <lane id=":node_10_5_0" index="0" speed="7.75" length="4.69" shape="3738.40,5950.57 3740.03,5946.17"/>
    </edge>
    <edge id=":node_10_37" function="internal">
        <lane id=":node_10_37_0" index="0" speed="16.30" length="30.24" shape="3740.00,5944.51 3744.41,5938.36 3751.91,5931.70 3762.42,5924.68"/>
    </edge>
    <edge id=":node_10_38" function="internal">
        <lane id=":node_10_38_0" index="0" speed="12.14" length="29.04" shape="3740.00,5945.82 3740.19,5945.25 3745.58,5941.44 3754.55,5939.16 3767.11,5938.40"/>
    </edge>
    <edge id=":node_10_39" function="internal">
        <lane id=":node_10_39_0" index="0" speed="7.75" length="16.64" shape="3740.03,5946.17 3744.10,5945.78 3749.34,5948.30 3754.52,5952.61"/>
    </edge>
    <edge id=":node_10_6" function="internal">
        <lane id=":node_10_6_0" index="0" speed="6.74" length="15.55" shape="3767.11,5944.80 3760.56,5945.15 3756.67,5946.20 3755.41,5947.94 3756.81,5950.38"/>
    </edge>
    <edge id=":node_10_7" function="internal">
        <lane id=":node_10_7_0" index="0" speed="10.31" length="24.26" shape="3767.11,5944.80 3757.35,5945.16 3750.38,5946.24 3746.19,5948.05 3744.80,5950.57"/>
    </edge>
    <edge id=":node_10_8" function="internal">
        <lane id=":node_10_8_0" index="0" speed="28.00" length="37.51" shape="3767.11,5944.80 3729.60,5944.80"/>
        <lane id=":node_10_8_1" index="1" speed="28.00" length="37.51" shape="3767.11,5941.60 3729.60,5941.60"/>
    </edge>
    <edge id=":node_10_10" function="internal">
        <lane id=":node_10_10_0" index="0" speed="13.23" length="13.26" shape="3767.11,5941.60 3754.55,5940.26 3753.97,5940.00"/>
    </edge>
    <edge id=":node_10_11" function="internal">
        <lane id=":node_10_11_0" index="0" speed="7.77" length="5.22" shape="3767.11,5941.60 3762.13,5940.00"/>
    </edge>
    <edge id=":node_10_40" function="internal">
        <lane id=":node_10_40_0" index="0" speed="13.23" length="27.36" shape="3753.97,5940.00 3745.58,5936.23 3740.19,5929.53 3738.40,5920.14"/>
    </edge>
    <edge id=":node_10_41" function="internal">
        <lane id=":node_10_41_0" index="0" speed="7.77" length="18.60" shape="3762.13,5940.00 3761.08,5939.66 3757.97,5935.02 3758.25,5929.44 3762.42,5924.68"/>
    </edge>
    <edge id=":node_10_12" function="internal">
        <lane id=":node_10_12_0" index="0" speed="5.51" length="11.05" shape="3765.71,5930.17 3762.66,5932.37 3761.87,5933.94 3763.35,5934.89 3767.11,5935.20"/>
    </edge>
    <edge id=":node_10_13" function="internal">
        <lane id=":node_10_13_0" index="0" speed="9.88" length="26.09" shape="3765.71,5930.17 3758.39,5935.49 3754.47,5940.64 3753.94,5945.60 3756.81,5950.38"/>
    </edge>
    <edge id=":node_10_14" function="internal">
        <lane id=":node_10_14_0" index="0" speed="14.81" length="30.03" shape="3765.71,5930.17 3756.56,5936.15 3750.03,5941.54 3746.11,5946.35 3744.80,5950.57"/>
    </edge>
    <edge id=":node_10_15" function="internal">
        <lane id=":node_10_15_0" index="0" speed="27.92" length="38.42" shape="3765.71,5930.17 3757.86,5934.63 3748.19,5939.41 3738.26,5943.24 3729.60,5944.80"/>
        <lane id=":node_10_15_1" index="1" speed="27.32" length="38.42" shape="3764.07,5927.43 3756.47,5931.81 3747.37,5936.44 3738.00,5940.11 3729.60,5941.60"/>
    </edge>
    <edge id=":node_10_17" function="internal">
        <lane id=":node_10_17_0" index="0" speed="10.29" length="34.12" shape="3764.07,5927.43 3754.69,5931.59 3746.47,5932.20 3740.62,5928.60 3738.40,5920.14"/>
    </edge>
    <edge id=":node_10_18" function="internal">
        <lane id=":node_10_18_0" index="0" speed="8.15" length="20.84" shape="3744.80,5920.14 3745.80,5924.52 3748.79,5926.28 3753.79,5925.42 3760.77,5921.94"/>
    </edge>
    <edge id=":node_10_19" function="internal">
        <lane id=":node_10_19_0" index="0" speed="11.49" length="30.36" shape="3744.80,5920.14 3746.19,5926.73 3750.38,5931.43 3757.35,5934.26 3767.11,5935.20"/>
    </edge>
    <edge id=":node_10_20" function="internal">
        <lane id=":node_10_20_0" index="0" speed="19.02" length="33.17" shape="3744.80,5920.14 3745.70,5928.08 3748.19,5936.32 3751.99,5944.04 3756.81,5950.38"/>
    </edge>
    <edge id=":node_10_21" function="internal">
        <lane id=":node_10_21_0" index="0" speed="28.00" length="30.43" shape="3744.80,5920.14 3744.80,5950.57"/>
        <lane id=":node_10_21_1" index="1" speed="28.00" length="30.43" shape="3741.60,5920.14 3741.60,5950.57"/>
    </edge>
    <edge id=":node_10_23" function="internal">
        <lane id=":node_10_23_0" index="0" speed="10.93" length="12.09" shape="3741.60,5920.14 3740.85,5929.53 3740.00,5932.06"/>
    </edge>
    <edge id=":node_10_42" function="internal">
        <lane id=":node_10_42_0" index="0" speed="10.93" length="15.32" shape="3740.00,5932.06 3738.60,5936.23 3734.85,5940.26 3729.60,5941.60"/>
    </edge>
    <edge id=":node_10_24" function="internal">
        <lane id=":node_10_24_0" index="0" speed="5.47" length="9.80" shape="3729.67,5922.37 3732.09,5924.38 3733.82,5924.68 3734.85,5923.27 3735.20,5920.14"/>
    </edge>
    <edge id=":node_10_25" function="internal">
        <lane id=":node_10_25_0" index="0" speed="13.27" length="33.77" shape="3729.67,5922.37 3735.79,5926.67 3743.01,5928.04 3751.34,5926.46 3760.77,5921.94"/>
    </edge>
    <edge id=":node_10_26" function="internal">
        <lane id=":node_10_26_0" index="0" speed="20.71" length="41.85" shape="3729.67,5922.37 3737.81,5929.38 3746.76,5934.39 3756.52,5937.40 3767.11,5938.40"/>
    </edge>
    <edge id=":node_10_27" function="internal">
        <lane id=":node_10_27_0" index="0" speed="13.89" length="39.01" shape="3729.67,5922.37 3756.81,5950.38"/>
        <lane id=":node_10_27_1" index="1" speed="13.89" length="39.01" shape="3727.37,5924.59 3754.52,5952.61"/>
    </edge>
    <edge id=":node_10_29" function="internal">
        <lane id=":node_10_29_0" index="0" speed="18.28" length="30.31" shape="3727.37,5924.59 3732.52,5930.28 3737.09,5936.53 3740.35,5943.31 3741.60,5950.57"/>
    </edge>
    <edge id=":node_10_30" function="internal">
        <lane id=":node_10_30_0" index="0" speed="7.99" length="22.43" shape="3727.37,5924.59 3731.85,5930.14 3734.54,5935.67 3734.20,5939.91 3729.60,5941.60"/>
    </edge>
    <edge id=":node_10_31" function="internal">
        <lane id=":node_10_31_0" index="0" speed="8.80" length="17.37" shape="3729.60,5935.20 3732.05,5934.26 3733.80,5931.43 3734.85,5926.73 3735.20,5920.14"/>
    </edge>
    <edge id=":node_10_32" function="internal">
        <lane id=":node_10_32_0" index="0" speed="26.28" length="34.77" shape="3729.60,5935.20 3737.74,5934.28 3746.54,5931.87 3755.08,5928.50 3762.42,5924.68"/>
    </edge>
    <edge id=":node_10_33" function="internal">
        <lane id=":node_10_33_0" index="0" speed="28.00" length="37.51" shape="3729.60,5935.20 3767.11,5935.20"/>
        <lane id=":node_10_33_1" index="1" speed="28.00" length="37.51" shape="3729.60,5938.40 3767.11,5938.40"/>
    </edge>
    <edge id=":node_10_35" function="internal">
        <lane id=":node_10_35_0" index="0" speed="17.47" length="7.55" shape="3729.60,5938.40 3735.31,5939.29 3736.93,5940.00"/>
    </edge>
    <edge id=":node_10_36" function="internal">
        <lane id=":node_10_36_0" index="0" speed="9.29" length="6.92" shape="3729.60,5938.40 3734.85,5939.16 3736.23,5940.00"/>
    </edge>
    <edge id=":node_10_43" function="internal">
        <lane id=":node_10_43_0" index="0" speed="17.47" length="21.82" shape="3736.93,5940.00 3741.37,5941.95 3747.77,5946.40 3754.52,5952.61"/>
    </edge>
    <edge id=":node_10_44" function="internal">
        <lane id=":node_10_44_0" index="0" speed="9.29" length="12.57" shape="3736.23,5940.00 3738.60,5941.44 3740.85,5945.25 3741.60,5950.57"/>
    </edge>
    <edge id=":node_11_0" function="internal">
        <lane id=":node_11_0_0" index="0" speed="6.51" length="9.03" shape="1755.20,5950.40 1754.85,5947.95 1753.80,5946.20 1752.05,5945.15 1749.60,5944.80"/>
    </edge>
    <edge id=":node_11_1" function="internal">
        <lane id=":node_11_1_0" index="0" speed="28.00" length="30.73" shape="1755.20,5950.40 1755.20,5919.67"/>
        <lane id=":node_11_1_1" index="1" speed="28.00" length="30.73" shape="1758.40,5950.40 1758.40,5919.67"/>
    </edge>
    <edge id=":node_11_3" function="internal">
        <lane id=":node_11_3_0" index="0" speed="11.03" length="5.73" shape="1758.40,5950.40 1759.78,5945.15 1760.00,5944.95"/>
    </edge>
    <edge id=":node_11_4" function="internal">
        <lane id=":node_11_4_0" index="0" speed="8.18" length="4.67" shape="1758.40,5950.40 1760.00,5946.01"/>
    </edge>
    <edge id=":node_11_26" function="internal">
        <lane id=":node_11_26_0" index="0" speed="11.03" length="22.18" shape="1760.00,5944.95 1763.91,5941.40 1770.79,5939.15 1780.42,5938.40"/>
    </edge>
    <edge id=":node_11_27" function="internal">
        <lane id=":node_11_27_0" index="0" speed="8.18" length="18.62" shape="1760.00,5946.01 1760.14,5945.62 1764.52,5945.28 1770.27,5948.06 1776.12,5952.64"/>
    </edge>
    <edge id=":node_11_5" function="internal">
        <lane id=":node_11_5_0" index="0" speed="5.46" length="9.88" shape="1780.42,5944.80 1777.25,5945.14 1775.84,5946.17 1776.18,5947.89 1778.29,5950.28"/>
    </edge>
    <edge id=":node_11_6" function="internal">
        <lane id=":node_11_6_0" index="0" speed="8.92" length="17.89" shape="1780.42,5944.80 1773.59,5945.15 1768.71,5946.20 1765.78,5947.95 1764.80,5950.40"/>
    </edge>
    <edge id=":node_11_7" function="internal">
        <lane id=":node_11_7_0" index="0" speed="28.00" length="30.82" shape="1780.42,5944.80 1749.60,5944.80"/>
        <lane id=":node_11_7_1" index="1" speed="28.00" length="30.82" shape="1780.42,5941.60 1749.60,5941.60"/>
    </edge>
    <edge id=":node_11_9" function="internal">
        <lane id=":node_11_9_0" index="0" speed="12.38" length="10.18" shape="1780.42,5941.60 1770.79,5940.23 1770.40,5940.00"/>
    </edge>
    <edge id=":node_11_28" function="internal">
        <lane id=":node_11_28_0" index="0" speed="12.38" length="25.26" shape="1770.40,5940.00 1763.91,5936.12 1759.78,5929.26 1758.40,5919.67"/>
    </edge>
    <edge id=":node_11_10" function="internal">
        <lane id=":node_11_10_0" index="0" speed="10.49" length="25.12" shape="1764.80,5919.67 1765.78,5926.46 1768.71,5931.32 1773.59,5934.23 1780.42,5935.20"/>
    </edge>
    <edge id=":node_11_11" function="internal">
        <lane id=":node_11_11_0" index="0" speed="18.42" length="34.44" shape="1764.80,5919.67 1765.64,5928.42 1768.17,5936.43 1772.39,5943.72 1778.29,5950.28"/>
    </edge>
    <edge id=":node_11_12" function="internal">
        <lane id=":node_11_12_0" index="0" speed="28.00" length="30.73" shape="1764.80,5919.67 1764.80,5950.40"/>
        <lane id=":node_11_12_1" index="1" speed="28.00" length="30.73" shape="1761.60,5919.67 1761.60,5950.40"/>
    </edge>
    <edge id=":node_11_14" function="internal">
        <lane id=":node_11_14_0" index="0" speed="11.01" length="12.35" shape="1761.60,5919.67 1760.85,5929.26 1760.00,5931.85"/>
    </edge>
    <edge id=":node_11_29" function="internal">
        <lane id=":node_11_29_0" index="0" speed="11.01" length="15.48" shape="1760.00,5931.85 1758.60,5936.12 1754.85,5940.23 1749.60,5941.60"/>
    </edge>
    <edge id=":node_11_15" function="internal">
        <lane id=":node_11_15_0" index="0" speed="5.46" length="9.87" shape="1749.71,5921.82 1752.11,5923.91 1753.83,5924.25 1754.86,5922.84 1755.20,5919.67"/>
    </edge>
    <edge id=":node_11_16" function="internal">
        <lane id=":node_11_16_0" index="0" speed="18.49" length="34.48" shape="1749.71,5921.82 1756.27,5927.68 1763.58,5931.86 1771.63,5934.36 1780.42,5935.20"/>
    </edge>
    <edge id=":node_11_17" function="internal">
        <lane id=":node_11_17_0" index="0" speed="13.89" length="40.46" shape="1749.71,5921.82 1778.29,5950.28"/>
        <lane id=":node_11_17_1" index="1" speed="13.89" length="40.46" shape="1747.36,5924.00 1776.12,5952.64"/>
    </edge>
    <edge id=":node_11_19" function="internal">
        <lane id=":node_11_19_0" index="0" speed="18.76" length="30.65" shape="1747.36,5924.00 1752.45,5929.81 1757.03,5936.20 1760.33,5943.09 1761.60,5950.40"/>
    </edge>
    <edge id=":node_11_20" function="internal">
        <lane id=":node_11_20_0" index="0" speed="8.14" length="23.15" shape="1747.36,5924.00 1751.92,5929.80 1754.69,5935.51 1754.35,5939.87 1749.60,5941.60"/>
    </edge>
    <edge id=":node_11_21" function="internal">
        <lane id=":node_11_21_0" index="0" speed="8.90" length="17.80" shape="1749.60,5935.20 1752.05,5934.23 1753.80,5931.32 1754.85,5926.46 1755.20,5919.67"/>
    </edge>
    <edge id=":node_11_22" function="internal">
        <lane id=":node_11_22_0" index="0" speed="28.00" length="30.82" shape="1749.60,5935.20 1780.42,5935.20"/>
        <lane id=":node_11_22_1" index="1" speed="28.00" length="30.82" shape="1749.60,5938.40 1780.42,5938.40"/>
    </edge>
    <edge id=":node_11_24" function="internal">
        <lane id=":node_11_24_0" index="0" speed="18.86" length="8.19" shape="1749.60,5938.40 1756.93,5939.67 1757.61,5940.00"/>
    </edge>
    <edge id=":node_11_25" function="internal">
        <lane id=":node_11_25_0" index="0" speed="9.26" length="6.96" shape="1749.60,5938.40 1754.85,5939.15 1756.27,5940.00"/>
    </edge>
    <edge id=":node_11_30" function="internal">
        <lane id=":node_11_30_0" index="0" speed="18.86" length="22.55" shape="1757.61,5940.00 1763.85,5942.98 1770.28,5947.56 1776.12,5952.64"/>
    </edge>
    <edge id=":node_11_31" function="internal">
        <lane id=":node_11_31_0" index="0" speed="9.26" length="12.40" shape="1756.27,5940.00 1758.60,5941.40 1760.85,5945.15 1761.60,5950.40"/>
    </edge>
    <edge id=":node_12_0" function="internal">
        <lane id=":node_12_0_0" index="0" speed="5.61" length="9.31" shape="-4.80,5955.87 -5.16,5953.06 -6.26,5951.60 -8.07,5951.50 -10.62,5952.74"/>
    </edge>
    <edge id=":node_12_1" function="internal">
        <lane id=":node_12_1_0" index="0" speed="28.00" length="31.71" shape="-4.80,5955.87 -4.80,5924.17"/>
        <lane id=":node_12_1_1" index="1" speed="28.00" length="31.71" shape="-1.60,5955.87 -1.60,5924.17"/>
    </edge>
    <edge id=":node_12_3" function="internal">
        <lane id=":node_12_3_0" index="0" speed="10.24" length="9.91" shape="-1.60,5955.87 -0.85,5948.23 0.00,5946.17"/>
    </edge>
    <edge id=":node_12_17" function="internal">
        <lane id=":node_12_17_0" index="0" speed="10.24" length="14.02" shape="0.00,5946.17 1.40,5942.77 5.15,5939.49 10.40,5938.40"/>
    </edge>
    <edge id=":node_12_4" function="internal">
        <lane id=":node_12_4_0" index="0" speed="7.88" length="13.73" shape="10.40,5944.80 7.95,5945.49 6.20,5947.57 5.15,5951.03 4.80,5955.87"/>
    </edge>
    <edge id=":node_12_5" function="internal">
        <lane id=":node_12_5_0" index="0" speed="19.96" length="23.85" shape="10.40,5944.80 4.07,5945.27 -0.73,5946.71 -5.22,5949.18 -10.62,5952.74"/>
        <lane id=":node_12_5_1" index="1" speed="20.73" length="23.85" shape="10.40,5941.60 3.80,5942.15 -1.61,5943.77 -6.70,5946.42 -12.38,5950.06"/>
    </edge>
    <edge id=":node_12_7" function="internal">
        <lane id=":node_12_7_0" index="0" speed="10.24" length="6.94" shape="10.40,5941.60 5.15,5940.51 3.96,5939.48"/>
    </edge>
    <edge id=":node_12_18" function="internal">
        <lane id=":node_12_18_0" index="0" speed="10.24" length="16.96" shape="3.96,5939.48 1.40,5937.24 -0.85,5931.79 -1.60,5924.17"/>
    </edge>
    <edge id=":node_12_8" function="internal">
        <lane id=":node_12_8_0" index="0" speed="7.87" length="13.70" shape="4.80,5924.17 5.15,5928.99 6.20,5932.44 7.95,5934.51 10.40,5935.20"/>
    </edge>
    <edge id=":node_12_9" function="internal">
        <lane id=":node_12_9_0" index="0" speed="28.00" length="31.71" shape="4.80,5924.17 4.80,5955.87"/>
        <lane id=":node_12_9_1" index="1" speed="28.00" length="31.71" shape="1.60,5924.17 1.60,5955.87"/>
    </edge>
    <edge id=":node_12_11" function="internal">
        <lane id=":node_12_11_0" index="0" speed="15.39" length="9.98" shape="1.60,5924.17 0.73,5932.05 0.00,5933.97"/>
    </edge>
    <edge id=":node_12_19" function="internal">
        <lane id=":node_12_19_0" index="0" speed="15.39" length="20.73" shape="0.00,5933.97 -1.90,5938.99 -6.26,5944.99 -12.38,5950.06"/>
    </edge>
    <edge id=":node_12_12" function="internal">
        <lane id=":node_12_12_0" index="0" speed="5.61" length="9.31" shape="-10.62,5927.32 -8.08,5928.55 -6.26,5928.43 -5.16,5926.97 -4.80,5924.17"/>
    </edge>
    <edge id=":node_12_13" function="internal">
        <lane id=":node_12_13_0" index="0" speed="20.04" length="23.83" shape="-10.62,5927.32 -5.21,5930.86 -0.72,5933.31 4.07,5934.74 10.40,5935.20"/>
        <lane id=":node_12_13_1" index="1" speed="20.81" length="23.83" shape="-12.37,5930.00 -6.69,5933.62 -1.60,5936.25 3.80,5937.86 10.40,5938.40"/>
    </edge>
    <edge id=":node_12_15" function="internal">
        <lane id=":node_12_15_0" index="0" speed="15.36" length="16.45" shape="-12.37,5930.00 -6.26,5935.04 -1.89,5941.03 -1.50,5942.07"/>
    </edge>
    <edge id=":node_12_16" function="internal">
        <lane id=":node_12_16_0" index="0" speed="9.36" length="17.75" shape="-12.37,5930.00 -6.64,5935.00 -4.73,5940.01 -6.43,5944.48"/>
    </edge>
    <edge id=":node_12_20" function="internal">
        <lane id=":node_12_20_0" index="0" speed="15.36" length="14.26" shape="-1.50,5942.07 0.73,5947.98 1.60,5955.87"/>
    </edge>
    <edge id=":node_12_21" function="internal">
        <lane id=":node_12_21_0" index="0" speed="9.36" length="8.23" shape="-6.43,5944.48 -6.64,5945.03 -12.38,5950.06"/>
    </edge>
    <edge id=":node_13_0" function="internal">
        <lane id=":node_13_0_0" index="0" speed="20.95" length="20.80" shape="-4.80,10.40 -4.80,-10.40"/>
        <lane id=":node_13_0_1" index="1" speed="20.95" length="20.80" shape="-1.60,10.40 -1.60,-10.40"/>
    </edge>
    <edge id=":node_13_2" function="internal">
        <lane id=":node_13_2_0" index="0" speed="9.26" length="19.35" shape="-1.60,10.40 -0.85,5.15 1.40,1.40 5.15,-0.85 10.40,-1.60"/>
    </edge>
    <edge id=":node_13_3" function="internal">
        <lane id=":node_13_3_0" index="0" speed="6.51" length="9.03" shape="10.40,4.80 7.95,5.15 6.20,6.20 5.15,7.95 4.80,10.40"/>
    </edge>
    <edge id=":node_13_4" function="internal">
        <lane id=":node_13_4_0" index="0" speed="10.10" length="23.22" shape="10.40,4.80 5.00,3.43 0.11,-0.11 -3.44,-5.00 -4.80,-10.40"/>
    </edge>
    <edge id=":node_13_5" function="internal">
        <lane id=":node_13_5_0" index="0" speed="9.02" length="18.33" shape="10.40,1.60 6.14,0.52 2.28,-2.28 -0.52,-6.14 -1.60,-10.40"/>
    </edge>
    <edge id=":node_13_6" function="internal">
        <lane id=":node_13_6_0" index="0" speed="6.70" length="9.39" shape="-10.57,-4.43 -8.04,-4.88 -6.24,-6.02 -5.16,-7.86 -4.80,-10.40"/>
    </edge>
    <edge id=":node_13_7" function="internal">
        <lane id=":node_13_7_0" index="0" speed="20.95" length="20.91" shape="-10.57,-4.43 10.40,-4.80"/>
        <lane id=":node_13_7_1" index="1" speed="20.95" length="20.91" shape="-10.45,-1.23 10.40,-1.60"/>
    </edge>
    <edge id=":node_13_9" function="internal">
        <lane id=":node_13_9_0" index="0" speed="8.87" length="18.14" shape="-10.45,-1.23 -6.22,-0.28 -2.33,2.42 0.50,6.20 1.60,10.40"/>
    </edge>
    <edge id=":node_14_0" function="internal">
        <lane id=":node_14_0_0" index="0" speed="5.48" length="9.73" shape="1755.20,3099.43 1754.85,3096.34 1753.81,3094.92 1752.07,3095.18 1749.64,3097.12"/>
    </edge>
    <edge id=":node_14_1" function="internal">
        <lane id=":node_14_1_0" index="0" speed="28.00" length="34.56" shape="1755.20,3099.43 1755.20,3064.87"/>
        <lane id=":node_14_1_1" index="1" speed="28.00" length="34.56" shape="1758.40,3099.43 1758.40,3064.87"/>
    </edge>
    <edge id=":node_14_3" function="internal">
        <lane id=":node_14_3_0" index="0" speed="10.86" length="11.85" shape="1758.40,3099.43 1759.15,3090.23 1760.00,3087.75"/>
    </edge>
    <edge id=":node_14_17" function="internal">
        <lane id=":node_14_17_0" index="0" speed="10.86" length="15.17" shape="1760.00,3087.75 1761.40,3083.66 1765.15,3079.71 1770.40,3078.40"/>
    </edge>
    <edge id=":node_14_4" function="internal">
        <lane id=":node_14_4_0" index="0" speed="8.70" length="16.97" shape="1770.40,3084.80 1767.95,3085.71 1766.20,3088.46 1765.15,3093.03 1764.80,3099.43"/>
    </edge>
    <edge id=":node_14_5" function="internal">
        <lane id=":node_14_5_0" index="0" speed="16.35" length="24.98" shape="1770.40,3084.80 1763.93,3085.73 1758.92,3088.31 1754.46,3092.21 1749.64,3097.12"/>
    </edge>
    <edge id=":node_14_6" function="internal">
        <lane id=":node_14_6_0" index="0" speed="17.09" length="27.34" shape="1770.40,3081.60 1763.58,3082.68 1757.79,3085.58 1752.56,3089.80 1747.38,3094.85"/>
    </edge>
    <edge id=":node_14_7" function="internal">
        <lane id=":node_14_7_0" index="0" speed="10.11" length="6.90" shape="1770.40,3081.60 1765.15,3080.55 1763.97,3079.56"/>
    </edge>
    <edge id=":node_14_18" function="internal">
        <lane id=":node_14_18_0" index="0" speed="10.11" length="16.39" shape="1763.97,3079.56 1761.40,3077.42 1759.15,3072.19 1758.40,3064.87"/>
    </edge>
    <edge id=":node_14_8" function="internal">
        <lane id=":node_14_8_0" index="0" speed="7.70" length="13.07" shape="1764.80,3064.87 1765.15,3069.39 1766.20,3072.62 1767.95,3074.55 1770.40,3075.20"/>
    </edge>
    <edge id=":node_14_9" function="internal">
        <lane id=":node_14_9_0" index="0" speed="28.00" length="34.56" shape="1764.80,3064.87 1764.80,3099.43"/>
        <lane id=":node_14_9_1" index="1" speed="28.00" length="34.56" shape="1761.60,3064.87 1761.60,3099.43"/>
    </edge>
    <edge id=":node_14_11" function="internal">
        <lane id=":node_14_11_0" index="0" speed="19.00" length="9.99" shape="1761.60,3064.87 1760.71,3072.67 1760.00,3074.69"/>
    </edge>
    <edge id=":node_14_19" function="internal">
        <lane id=":node_14_19_0" index="0" speed="19.00" length="24.04" shape="1760.00,3074.69 1758.04,3080.26 1753.60,3087.66 1747.38,3094.85"/>
    </edge>
    <edge id=":node_14_12" function="internal">
        <lane id=":node_14_12_0" index="0" speed="5.66" length="9.24" shape="1749.34,3068.24 1751.90,3069.31 1753.73,3069.10 1754.83,3067.62 1755.20,3064.87"/>
    </edge>
    <edge id=":node_14_13" function="internal">
        <lane id=":node_14_13_0" index="0" speed="20.95" length="23.40" shape="1749.34,3068.24 1754.87,3071.45 1759.36,3073.61 1764.11,3074.82 1770.40,3075.20"/>
        <lane id=":node_14_13_1" index="1" speed="20.95" length="23.40" shape="1747.73,3071.01 1753.51,3074.28 1758.56,3076.59 1763.85,3077.95 1770.40,3078.40"/>
    </edge>
    <edge id=":node_14_15" function="internal">
        <lane id=":node_14_15_0" index="0" speed="15.42" length="16.75" shape="1747.73,3071.01 1753.80,3075.81 1758.13,3082.15 1758.55,3083.41"/>
    </edge>
    <edge id=":node_14_16" function="internal">
        <lane id=":node_14_16_0" index="0" speed="10.36" length="19.43" shape="1747.73,3071.01 1753.82,3076.23 1755.37,3081.92 1753.40,3087.06"/>
    </edge>
    <edge id=":node_14_20" function="internal">
        <lane id=":node_14_20_0" index="0" speed="15.42" length="16.41" shape="1758.55,3083.41 1760.73,3090.02 1761.60,3099.43"/>
    </edge>
    <edge id=":node_14_21" function="internal">
        <lane id=":node_14_21_0" index="0" speed="10.36" length="9.90" shape="1753.40,3087.06 1753.00,3088.12 1747.38,3094.85"/>
    </edge>
    <edge id=":node_15_0" function="internal">
        <lane id=":node_15_0_0" index="0" speed="6.51" length="9.03" shape="3735.20,3090.40 3734.85,3087.95 3733.80,3086.20 3732.05,3085.15 3729.60,3084.80"/>
    </edge>
    <edge id=":node_15_1" function="internal">
        <lane id=":node_15_1_0" index="0" speed="28.00" length="29.85" shape="3735.20,3090.40 3735.20,3060.55"/>
        <lane id=":node_15_1_1" index="1" speed="28.00" length="29.85" shape="3738.40,3090.40 3738.40,3060.55"/>
    </edge>
    <edge id=":node_15_3" function="internal">
        <lane id=":node_15_3_0" index="0" speed="10.89" length="5.79" shape="3738.40,3090.40 3739.72,3085.15 3740.00,3084.89"/>
    </edge>
    <edge id=":node_15_4" function="internal">
        <lane id=":node_15_4_0" index="0" speed="7.89" length="4.61" shape="3738.40,3090.40 3740.00,3086.07"/>
    </edge>
    <edge id=":node_15_26" function="internal">
        <lane id=":node_15_26_0" index="0" speed="10.89" length="21.36" shape="3740.00,3084.89 3743.69,3081.40 3750.31,3079.15 3759.57,3078.40"/>
    </edge>
    <edge id=":node_15_27" function="internal">
        <lane id=":node_15_27_0" index="0" speed="7.89" length="17.38" shape="3740.00,3086.07 3740.07,3085.89 3744.23,3085.55 3749.64,3088.20 3755.04,3092.63"/>
    </edge>
    <edge id=":node_15_5" function="internal">
        <lane id=":node_15_5_0" index="0" speed="5.47" length="9.76" shape="3759.57,3084.80 3756.47,3085.15 3755.06,3086.19 3755.33,3087.92 3757.29,3090.35"/>
    </edge>
    <edge id=":node_15_6" function="internal">