<?xml version="1.0" encoding="UTF-8"?>
<!-- generated on 2023-05-15 16:29:44.977044 by $Id$ v1_8_0+0044-4820708f3d
  options: -n erlangen.net.xml -r erlangen.rou.xml -p 0.7 <doubleminus>binomial 10 -L -b 0 -e 2000
-->
<routes xmlns:xsi="http://www.w3.org/2001/XMLSchema-instance" xsi:noNamespaceSchemaLocation="http://sumo.dlr.de/xsd/routes_file.xsd">
    <trip id="0" depart="0.00" from="242758174#4" to="142321461#2"/>
    <trip id="1" depart="0.00" from="266577945#1" to="-246438216#2"/>
    <trip id="2" depart="0.00" from="-59868447#0" to="335525201#0"/>
    <trip id="3" depart="1.00" from="550169263" to="39820421#3"/>
    <trip id="4" depart="1.00" from="-337129679#1" to="59140288#0"/>
    <trip id="5" depart="3.00" from="142321460#4" to="246573547#0"/>
    <trip id="6" depart="3.00" from="142321461#6" to="-382975417#1"/>
    <trip id="7" depart="5.00" from="254488439" to="245280129#0"/>
    <trip id="8" depart="7.00" from="-246573560#1" to="-40541065#2"/>
    <trip id="9" depart="7.00" from="263309131#3" to="969449155#8"/>
    <trip id="10" depart="8.00" from="447556677#0" to="337335334#1"/>
    <trip id="11" depart="8.00" from="266957160#10" to="267404279"/>
    <trip id="12" depart="10.00" from="257224673#1" to="-245280130"/>
    <trip id="13" depart="10.00" from="59140336#15" to="763969664#1"/>
    <trip id="14" depart="10.00" from="28258942#4" to="-263309130"/>
    <trip id="15" depart="10.00" from="277672363#3" to="290629741#3"/>
    <trip id="16" depart="12.00" from="142321459#5" to="258248755"/>
    <trip id="17" depart="12.00" from="334971122#1" to="142324640#6"/>
    <trip id="18" depart="12.00" from="142324643#2" to="337129679#2"/>
    <trip id="19" depart="13.00" from="763969643#1" to="333403961#0"/>
    <trip id="20" depart="13.00" from="266795179#8" to="266795179#5"/>
    <trip id="21" depart="14.00" from="263770802" to="258248759"/>
    <trip id="22" depart="15.00" from="972635870#1" to="573113634"/>
    <trip id="23" depart="16.00" from="263309131#1" to="792883451"/>
    <trip id="24" depart="17.00" from="333418725" to="28296475#1"/>
    <trip id="25" depart="18.00" from="-59868408#2" to="334283252#1"/>
    <trip id="26" depart="18.00" from="59140347" to="187184120"/>
    <trip id="27" depart="19.00" from="267404277" to="970794154"/>
    <trip id="28" depart="20.00" from="142321458#0" to="242758174#1"/>
    <trip id="29" depart="21.00" from="550169268#1" to="246573564#1"/>
    <trip id="30" depart="21.00" from="-40541074#9" to="-40541061#0"/>
    <trip id="31" depart="22.00" from="266577945#6" to="245402047#3"/>
    <trip id="32" depart="22.00" from="457984513#0" to="335518636#0-AddedOffRampEdge"/>
    <trip id="33" depart="23.00" from="-267404269#2" to="59140338"/>
    <trip id="34" depart="23.00" from="246573564#1" to="59140356#1"/>
    <trip id="35" depart="24.00" from="463727052#1" to="59140340#0"/>
    <trip id="36" depart="25.00" from="457035236#0" to="258248018#0"/>
    <trip id="37" depart="25.00" from="59140316#4" to="59140301#0"/>
    <trip id="38" depart="26.00" from="-59868430#2" to="258081766"/>
    <trip id="39" depart="27.00" from="768088171" to="-59868408#2"/>
    <trip id="40" depart="27.00" from="266957160#10" to="447735852#1"/>
    <trip id="41" depart="28.00" from="59868471#0" to="287208890#1-AddedOnRampEdge"/>
    <trip id="42" depart="29.00" from="335527355" to="258081769#1"/>
    <trip id="43" depart="30.00" from="264116891#1" to="763969648#1"/>
    <trip id="44" depart="30.00" from="245402049#2" to="266957160#11"/>
    <trip id="45" depart="31.00" from="28358447#1" to="335518631#2"/>
    <trip id="46" depart="32.00" from="181353850#1-AddedOnRampEdge" to="28258007#4"/>
    <trip id="47" depart="32.00" from="263859123#1" to="334971122#1-AddedOnRampEdge"/>
    <trip id="48" depart="33.00" from="457983479#1-AddedOnRampEdge" to="457984513#4"/>
    <trip id="49" depart="33.00" from="266581130#0" to="-59868404#4"/>
    <trip id="50" depart="33.00" from="181355868#8" to="59140288#2"/>
    <trip id="51" depart="35.00" from="245402047#3" to="245283772#0"/>
    <trip id="52" depart="36.00" from="142321461#2" to="382975417#3"/>
    <trip id="53" depart="36.00" from="263773399-AddedOffRampEdge" to="287208894#3"/>
    <trip id="54" depart="37.00" from="258742307#1" to="457983490#1"/>
    <trip id="55" depart="38.00" from="258081763#1" to="337335334#0"/>
    <trip id="56" depart="38.00" from="334971117#0" to="-245402047#3"/>
    <trip id="57" depart="39.00" from="335518636#0-AddedOffRampEdge" to="-59128864#3"/>
    <trip id="58" depart="39.00" from="263309131#1" to="142321459#1"/>
    <trip id="59" depart="39.00" from="-242758174#2" to="287208890#1-AddedOnRampEdge"/>
    <trip id="60" depart="40.00" from="-59140302#2" to="-533483260#1"/>
    <trip id="61" depart="41.00" from="550169272" to="768088166"/>
    <trip id="62" depart="41.00" from="-245284593#3" to="254607358#1"/>
    <trip id="63" depart="42.00" from="37587463" to="334971122#1"/>
    <trip id="64" depart="42.00" from="460338573" to="59140293#0"/>
    <trip id="65" depart="42.00" from="783999519#3" to="463727052#4"/>
    <trip id="66" depart="43.00" from="768088159" to="335518636#0"/>
    <trip id="67" depart="44.00" from="59140337#8" to="181454362#0"/>
    <trip id="68" depart="45.00" from="59140295#0" to="-59868413#1"/>
    <trip id="69" depart="46.00" from="763969664#1" to="-288774524#2"/>
    <trip id="70" depart="46.00" from="142321459#3" to="382975415#3"/>
    <trip id="71" depart="47.00" from="-59868430#1" to="-457307897#1"/>
    <trip id="72" depart="48.00" from="-59868432" to="142324640#3"/>
    <trip id="73" depart="49.00" from="28484384#6" to="245284593#4"/>
    <trip id="74" depart="49.00" from="59140312#2" to="28276806#0"/>
    <trip id="75" depart="50.00" from="763969648#1" to="28258922#1"/>
    <trip id="76" depart="50.00" from="334971120-AddedOffRampEdge" to="-247807442#0"/>
    <trip id="77" depart="50.00" from="457984363-AddedOffRampEdge" to="334797274#0"/>
    <trip id="78" depart="52.00" from="-148316130#1" to="267404274"/>
    <trip id="79" depart="54.00" from="-59140336#10" to="254489533#2"/>
    <trip id="80" depart="54.00" from="367068457" to="40541060#5"/>
    <trip id="81" depart="55.00" from="-246573547#2" to="266957160#2"/>
    <trip id="82" depart="55.00" from="768088165#0" to="573113634"/>
    <trip id="83" depart="56.00" from="457983491" to="277672363#3"/>
    <trip id="84" depart="56.00" from="258248757" to="258248019"/>
    <trip id="85" depart="59.00" from="768088171-AddedOnRampEdge" to="334797274#1"/>
    <trip id="86" depart="60.00" from="969449155#3" to="59868433#0"/>
    <trip id="87" depart="60.00" from="55683011#8" to="28276817#0-AddedOffRampEdge"/>
    <trip id="88" depart="64.00" from="457307901#1" to="40541070#0"/>
    <trip id="89" depart="64.00" from="28276817#1" to="334281912#0"/>
    <trip id="90" depart="67.00" from="-259866068#3" to="334971123"/>
    <trip id="91" depart="67.00" from="334971122#1-AddedOnRampEdge" to="59140316#2"/>
    <trip id="92" depart="68.00" from="48795850#4" to="246573552"/>
    <trip id="93" depart="68.00" from="59140315#1" to="334971117#0"/>
    <trip id="94" depart="69.00" from="550169262#3" to="59868404#4"/>
    <trip id="95" depart="71.00" from="334797268#0" to="28276817#0"/>
    <trip id="96" depart="73.00" from="246573542#0" to="457983477#2"/>
    <trip id="97" depart="73.00" from="287208890#1" to="768088169#3"/>
    <trip id="98" depart="74.00" from="768088166" to="-59140295#2"/>
    <trip id="99" depart="75.00" from="28484384#9" to="267404280"/>
    <trip id="100" depart="76.00" from="142321461#7" to="-245284595"/>
    <trip id="101" depart="76.00" from="550169273#3" to="59868422#1"/>
    <trip id="102" depart="77.00" from="763969664#0" to="246573569#2"/>
    <trip id="103" depart="77.00" from="59140345#0" to="-59128864#3"/>
    <trip id="104" depart="78.00" from="28258956#2" to="264110603"/>
    <trip id="105" depart="78.00" from="259866067#8" to="266995291-AddedOnRampEdge"/>
    <trip id="106" depart="78.00" from="337335334#1" to="288774524#3"/>
    <trip id="107" depart="79.00" from="59140293#0" to="267404280"/>
    <trip id="108" depart="79.00" from="463727055#2" to="181454362#0"/>
    <trip id="109" depart="79.00" from="295967308#0-AddedOffRampEdge" to="-263095746#2"/>
    <trip id="110" depart="80.00" from="59140301#7" to="-59140302#2"/>
    <trip id="111" depart="80.00" from="181403005" to="-59868397#1"/>
    <trip id="112" depart="80.00" from="-235266560#2" to="47848566#2"/>
    <trip id="113" depart="81.00" from="457307898#1" to="28461931#2"/>
    <trip id="114" depart="81.00" from="28296471#0" to="763969664#0"/>
    <trip id="115" depart="81.00" from="463727052#4" to="59140308#3"/>
    <trip id="116" depart="82.00" from="28258007#4" to="263774000"/>
    <trip id="117" depart="82.00" from="-277672353#0" to="334797274#1"/>
    <trip id="118" depart="82.00" from="242758174#4" to="335518631#2"/>
    <trip id="119" depart="83.00" from="39820414#3" to="59140295#0"/>
    <trip id="120" depart="84.00" from="266795172#1" to="337129677#4"/>
    <trip id="121" depart="84.00" from="55683011#7" to="-337129677#6"/>
    <trip id="122" depart="85.00" from="457035253" to="550169266#1"/>
    <trip id="123" depart="85.00" from="259864853#0" to="337129677#4"/>
    <trip id="124" depart="86.00" from="59140287#6" to="263095746#0"/>
    <trip id="125" depart="87.00" from="763969632#0" to="55682682#2"/>
    <trip id="126" depart="88.00" from="59140314#0" to="296143790#1"/>
    <trip id="127" depart="88.00" from="334971122#1-AddedOnRampEdge" to="-246438218#1"/>
    <trip id="128" depart="89.00" from="-246573568#5" to="-59140317#2"/>
    <trip id="129" depart="90.00" from="266795179#5" to="246438220"/>
    <trip id="130" depart="90.00" from="263739440#0-AddedOffRampEdge" to="334283253#2"/>
    <trip id="131" depart="90.00" from="246573549#0" to="142321459#1"/>
    <trip id="132" depart="90.00" from="187184121#1" to="258081766"/>
    <trip id="133" depart="90.00" from="457308488" to="-59868404#4"/>
    <trip id="134" depart="91.00" from="59140305#0" to="-246573549#2"/>
    <trip id="135" depart="91.00" from="59868453" to="59140302#3"/>
    <trip id="136" depart="92.00" from="-245153375" to="258081759#0"/>
    <trip id="137" depart="92.00" from="59140287#1" to="181454361"/>
    <trip id="138" depart="93.00" from="28296475#8-AddedOffRampEdge" to="59868410#3"/>
    <trip id="139" depart="95.00" from="266957517" to="246573568#4"/>
    <trip id="140" depart="96.00" from="28296475#12" to="254607358#0"/>
    <trip id="141" depart="96.00" from="55683011#5" to="-277555004#3"/>
    <trip id="142" depart="97.00" from="-382975415#4" to="59140356#1"/>
    <trip id="143" depart="99.00" from="-337129677#3" to="337335333#2"/>
    <trip id="144" depart="100.00" from="258742300#0" to="768088169#1"/>
    <trip id="145" depart="102.00" from="-277555004#1" to="59128881#0"/>
    <trip id="146" depart="102.00" from="457984513#0" to="568945049#0"/>
    <trip id="147" depart="102.00" from="258081763#1" to="457984365#0-AddedOnRampEdge"/>
    <trip id="148" depart="102.00" from="263309131#0" to="-59140340#2"/>
    <trip id="149" depart="105.00" from="181357564#0" to="335518637#0"/>
    <trip id="150" depart="106.00" from="59140288#1" to="59140294#0"/>
    <trip id="151" depart="107.00" from="-246573569#0" to="28276817#2"/>
    <trip id="152" depart="107.00" from="763969632#2" to="59128842#2"/>
    <trip id="153" depart="107.00" from="245402049#2" to="55682682#4"/>
    <trip id="154" depart="108.00" from="40541062#2" to="267404267#2"/>
    <trip id="155" depart="108.00" from="-277555004#3" to="235000070#1"/>
    <trip id="156" depart="108.00" from="246438216#0" to="246573568#0"/>
    <trip id="157" depart="108.00" from="264116889#0" to="48795850#3"/>
    <trip id="158" depart="108.00" from="59868410#0" to="334283253#0"/>
    <trip id="159" depart="109.00" from="28358447#1" to="181403006"/>
    <trip id="160" depart="109.00" from="768088177#0" to="-259866074#1"/>
    <trip id="161" depart="110.00" from="463727057#3" to="259864854#0"/>
    <trip id="162" depart="111.00" from="287208894#3" to="550169268#0"/>
    <trip id="163" depart="112.00" from="460338573-AddedOnRampEdge" to="267598524#0"/>
    <trip id="164" depart="112.00" from="-59868448#0" to="-246573549#1"/>
    <trip id="165" depart="113.00" from="259866067#7" to="59140345#2"/>
    <trip id="166" depart="114.00" from="334283253#1" to="550169273#0"/>
    <trip id="167" depart="114.00" from="335525202" to="254489533#0"/>
    <trip id="168" depart="115.00" from="59140314#0" to="259866067#3"/>
    <trip id="169" depart="115.00" from="335518631#2" to="259866068#1"/>
    <trip id="170" depart="116.00" from="334797270#0" to="463727052#4"/>
    <trip id="171" depart="116.00" from="-259864876#1" to="463727052#1"/>
    <trip id="172" depart="117.00" from="456638573#1" to="28276817#0-AddedOffRampEdge"/>
    <trip id="173" depart="118.00" from="59140296#0" to="267404275"/>
    <trip id="174" depart="119.00" from="337335333#1" to="59128886#0"/>
    <trip id="175" depart="119.00" from="287208890#1-AddedOnRampEdge" to="59140349#0"/>
    <trip id="176" depart="120.00" from="-59868453" to="-59140290#1"/>
    <trip id="177" depart="120.00" from="290629743#0" to="263309131#0"/>
    <trip id="178" depart="120.00" from="246573564#3" to="972635870#1"/>
    <trip id="179" depart="121.00" from="768088171-AddedOnRampEdge" to="335518664#0"/>
    <trip id="180" depart="122.00" from="-457035238#1" to="-59140313#0"/>
    <trip id="181" depart="123.00" from="246573553#0" to="28484384#8"/>
    <trip id="182" depart="124.00" from="-246573556#2" to="335518637#1"/>
    <trip id="183" depart="125.00" from="-258248017#2" to="266957521#1-AddedOnRampEdge"/>
    <trip id="184" depart="126.00" from="259866067#8" to="295967307#0"/>
    <trip id="185" depart="127.00" from="246438218#1" to="263739438#2"/>
    <trip id="186" depart="128.00" from="763969658" to="28296475#12"/>
    <trip id="187" depart="128.00" from="28276810#1-AddedOffRampEdge" to="59140337#6"/>
    <trip id="188" depart="130.00" from="28296475#0" to="457984365#0-AddedOnRampEdge"/>
    <trip id="189" depart="130.00" from="768088177#0" to="263770046"/>
    <trip id="190" depart="131.00" from="-55683011#2" to="258248019"/>
    <trip id="191" depart="133.00" from="277672363#3" to="768088169#1"/>
    <trip id="192" depart="135.00" from="763969664#1" to="-40541065#2"/>
    <trip id="193" depart="135.00" from="246573570#0" to="-59140311#1"/>
    <trip id="194" depart="135.00" from="-55683011#5" to="142321458#4"/>
    <trip id="195" depart="138.00" from="337335331#0" to="263739437#0-AddedOffRampEdge"/>
    <trip id="196" depart="140.00" from="334971108#1" to="334281569"/>
    <trip id="197" depart="140.00" from="263859123#0" to="447556677#1"/>
    <trip id="198" depart="140.00" from="457984513#0" to="-181454360"/>
    <trip id="199" depart="142.00" from="333403964" to="285112026#1"/>
    <trip id="200" depart="143.00" from="333403952#0" to="-40541061#2"/>
    <trip id="201" depart="144.00" from="-59140316#1" to="272525419#0"/>
    <trip id="202" depart="145.00" from="337129677#2" to="-59868422#2"/>
    <trip id="203" depart="145.00" from="256711564#0" to="187184132#2"/>
    <trip id="204" depart="146.00" from="335523979" to="382975417#0"/>
    <trip id="205" depart="146.00" from="-446811226" to="254489533#2"/>
    <trip id="206" depart="147.00" from="59868438" to="246573556#0"/>
    <trip id="207" depart="147.00" from="-59140303#0" to="457983479#1"/>
    <trip id="208" depart="148.00" from="266995291" to="40541063#6"/>
    <trip id="209" depart="148.00" from="295967308#0-AddedOffRampEdge" to="-258248757"/>
    <trip id="210" depart="149.00" from="-59868472#1" to="334281568#0"/>
    <trip id="211" depart="149.00" from="28296475#8-AddedOffRampEdge" to="550169266#0"/>
    <trip id="212" depart="150.00" from="267598524#1" to="550169265"/>
    <trip id="213" depart="150.00" from="258248021#1" to="-259864853#1"/>
    <trip id="214" depart="150.00" from="763969641" to="-246438219"/>
    <trip id="215" depart="153.00" from="-245283770#1" to="246573563#1"/>
    <trip id="216" depart="154.00" from="550169266#0" to="266581134"/>
    <trip id="217" depart="154.00" from="-644293986#0" to="-382975417#1"/>
    <trip id="218" depart="154.00" from="334283251" to="40541063#5"/>
    <trip id="219" depart="154.00" from="457307898#0" to="263776585#0"/>
    <trip id="220" depart="155.00" from="28296471#0" to="246573547#0"/>
    <trip id="221" depart="156.00" from="763969664#1-AddedOnRampEdge" to="59140336#16"/>
    <trip id="222" depart="158.00" from="181353844#0" to="142320581#3"/>
    <trip id="223" depart="158.00" from="447556683#1" to="-59868440#2"/>
    <trip id="224" depart="160.00" from="763969643#1-AddedOnRampEdge" to="768088159"/>
    <trip id="225" depart="160.00" from="972635870#1" to="28258941#1"/>
    <trip id="226" depart="161.00" from="776084480" to="277672363#2"/>
    <trip id="227" depart="164.00" from="-246438219" to="59140287#4"/>
    <trip id="228" depart="165.00" from="28296475#10" to="263309131#2"/>
    <trip id="229" depart="166.00" from="290629741#3" to="-235266553#1"/>
    <trip id="230" depart="166.00" from="550169267" to="337335331#4"/>
    <trip id="231" depart="166.00" from="-337129679#1" to="-59140308#1"/>
    <trip id="232" depart="168.00" from="263309131#1" to="290629744#0"/>
    <trip id="233" depart="168.00" from="-187184121#0" to="-59140355#0"/>
    <trip id="234" depart="169.00" from="28461931#1" to="-246573552"/>
    <trip id="235" depart="169.00" from="-267404269#1" to="59868471#1"/>
    <trip id="236" depart="170.00" from="644293986#1" to="257224673#1"/>
    <trip id="237" depart="170.00" from="-59140316#1" to="181355868#2"/>
    <trip id="238" depart="171.00" from="89567410#3" to="447556685"/>
    <trip id="239" depart="171.00" from="266957160#15" to="59128842#1"/>
    <trip id="240" depart="172.00" from="242757827#2" to="969449155#3"/>
    <trip id="241" depart="172.00" from="334971110#0" to="48795850#9"/>
    <trip id="242" depart="173.00" from="-59140305#0" to="446811774"/>
    <trip id="243" depart="173.00" from="-181403006" to="254489533#3"/>
    <trip id="244" depart="173.00" from="-59868410#2" to="267404272"/>
    <trip id="245" depart="174.00" from="259864853#0" to="-337129677#6"/>
    <trip id="246" depart="174.00" from="59868404#0" to="59868410#1"/>
    <trip id="247" depart="175.00" from="246573548#3" to="28276810#1-AddedOffRampEdge"/>
    <trip id="248" depart="175.00" from="266957160#10" to="266795172#1"/>
    <trip id="249" depart="175.00" from="181454361" to="187184121#0"/>
    <trip id="250" depart="175.00" from="246573557#0" to="763969664#1-AddedOnRampEdge"/>
    <trip id="251" depart="176.00" from="254607358#0" to="763969664#1"/>
    <trip id="252" depart="178.00" from="295967308#0" to="334283248#0"/>
    <trip id="253" depart="179.00" from="969449155#1" to="28258941#1"/>
    <trip id="254" depart="181.00" from="457984365#1" to="335527353#0"/>
    <trip id="255" depart="181.00" from="783999519#2" to="337335333#1"/>
    <trip id="256" depart="181.00" from="216639727#0" to="28358444"/>
    <trip id="257" depart="182.00" from="-382975417#2" to="266577945#2"/>
    <trip id="258" depart="183.00" from="763969648#1" to="-59140295#5"/>
    <trip id="259" depart="184.00" from="59140294#0" to="335523979"/>
    <trip id="260" depart="185.00" from="334971108#0" to="-59868471#0"/>
    <trip id="261" depart="186.00" from="-380914194#1" to="59140315#0"/>
    <trip id="262" depart="188.00" from="-533483260#1" to="-457035239"/>
    <trip id="263" depart="188.00" from="263309131#4" to="-59868430#1"/>
    <trip id="264" depart="189.00" from="247807442#2" to="267404274"/>
    <trip id="265" depart="189.00" from="259866067#10" to="-187184132#0"/>
    <trip id="266" depart="189.00" from="550169268#0" to="768088165#1"/>
    <trip id="267" depart="190.00" from="-245402084" to="457984362#1"/>
    <trip id="268" depart="191.00" from="-40541073#1" to="460976632#1"/>
    <trip id="269" depart="191.00" from="447556632#2" to="290629738"/>
    <trip id="270" depart="191.00" from="55682683#4" to="457983489"/>
    <trip id="271" depart="193.00" from="-644293986#1" to="142321458#2"/>
    <trip id="272" depart="193.00" from="258742307#0" to="246438217#4"/>
    <trip id="273" depart="194.00" from="768088165#3" to="463727055#2"/>
    <trip id="274" depart="194.00" from="59140309#0" to="216639725"/>
    <trip id="275" depart="195.00" from="28358447#1" to="245402052"/>
    <trip id="276" depart="196.00" from="460338573" to="456638608#0"/>
    <trip id="277" depart="196.00" from="28484384#6" to="142321460#1"/>
    <trip id="278" depart="198.00" from="-337335340" to="463727052#5"/>
    <trip id="279" depart="198.00" from="59140301#4" to="266995291"/>
    <trip id="280" depart="198.00" from="768088155" to="142320581#1"/>
    <trip id="281" depart="198.00" from="335518664#3" to="-59140335"/>
    <trip id="282" depart="199.00" from="277672363#6" to="-59128839#3"/>
    <trip id="283" depart="200.00" from="382974141#0" to="550169269"/>
    <trip id="284" depart="200.00" from="-259866073#1" to="263739438#1-AddedOnRampEdge"/>
    <trip id="285" depart="200.00" from="246573569#2" to="59140336#8"/>
    <trip id="286" depart="200.00" from="460338573" to="457983490#0"/>
    <trip id="287" depart="200.00" from="969449155#5" to="-59140296#2"/>
    <trip id="288" depart="201.00" from="335518664#3" to="266957524"/>
    <trip id="289" depart="201.00" from="-367068460" to="457983490#0"/>
    <trip id="290" depart="202.00" from="245280129#1" to="-285112026#0"/>
    <trip id="291" depart="203.00" from="59140355#2" to="763969666#2"/>
    <trip id="292" depart="203.00" from="28276817#0-AddedOffRampEdge" to="334283251"/>
    <trip id="293" depart="204.00" from="59140303#0" to="333403954"/>
    <trip id="294" depart="204.00" from="-259864876#1" to="242757647#0"/>
    <trip id="295" depart="205.00" from="-258248018#0" to="47848566#1"/>
    <trip id="296" depart="205.00" from="28484384#9" to="334971113"/>
    <trip id="297" depart="206.00" from="382975417#2" to="449218910#0"/>
    <trip id="298" depart="206.00" from="-28461934#2" to="266957160#9"/>
    <trip id="299" depart="207.00" from="40541063#4" to="40541062#4"/>
    <trip id="300" depart="208.00" from="463727052#2" to="245280130"/>
    <trip id="301" depart="208.00" from="550169265" to="245283774#0"/>
    <trip id="302" depart="208.00" from="410084085" to="333404261#0"/>
    <trip id="303" depart="208.00" from="267404272" to="259866067#8"/>
    <trip id="304" depart="209.00" from="333403963" to="447556683#2"/>
    <trip id="305" depart="209.00" from="59140306#1" to="181454362#3"/>
    <trip id="306" depart="210.00" from="259866068#3" to="28296475#0"/>
    <trip id="307" depart="211.00" from="277555003#5" to="246438218#2"/>
    <trip id="308" depart="211.00" from="-59868453" to="295967308#0-AddedOffRampEdge"/>
    <trip id="309" depart="213.00" from="263776585#1" to="142324650"/>
    <trip id="310" depart="213.00" from="335525201#0-AddedOnRampEdge" to="59140290#1"/>
    <trip id="311" depart="213.00" from="28461934#1" to="181355866#2"/>
    <trip id="312" depart="213.00" from="970676839" to="446811774"/>
    <trip id="313" depart="214.00" from="59868453" to="59140355#2"/>
    <trip id="314" depart="214.00" from="-337129677#6" to="-59128842#1"/>
    <trip id="315" depart="214.00" from="333403952#0" to="266957160#9"/>
    <trip id="316" depart="215.00" from="-59868466#1" to="463727052#2"/>
    <trip id="317" depart="216.00" from="-59140308#4" to="37587463"/>
    <trip id="318" depart="217.00" from="59128839#3" to="258081765#1"/>
    <trip id="319" depart="217.00" from="181355868#2" to="259866067#5"/>
    <trip id="320" depart="217.00" from="263773392#1" to="267404275"/>
    <trip id="321" depart="218.00" from="-212737649#2" to="55682683#1"/>
    <trip id="322" depart="218.00" from="550169273#3" to="263309131#2"/>
    <trip id="323" depart="219.00" from="-258742292" to="59868406#2"/>
    <trip id="324" depart="219.00" from="59868410#0" to="55682682#2"/>
    <trip id="325" depart="219.00" from="267598223#1" to="-59140345#6"/>
    <trip id="326" depart="219.00" from="337335333#2" to="-59140355#4"/>
    <trip id="327" depart="220.00" from="334971113" to="187184115"/>
    <trip id="328" depart="220.00" from="245283769#0" to="-59128864#8"/>
    <trip id="329" depart="222.00" from="969449155#3" to="28484384#3"/>
    <trip id="330" depart="223.00" from="335525201#0-AddedOnRampEdge" to="242758175#0"/>
    <trip id="331" depart="223.00" from="970676839" to="142321460#4"/>
    <trip id="332" depart="224.00" from="39820414#0" to="763969664#1"/>
    <trip id="333" depart="225.00" from="142321461#6" to="142321460#3"/>
    <trip id="334" depart="225.00" from="59868442" to="1135556176#1"/>
    <trip id="335" depart="225.00" from="447288731#1" to="59868447#1"/>
    <trip id="336" depart="226.00" from="334281568#0" to="59868442"/>
    <trip id="337" depart="226.00" from="246573549#0" to="-59128864#6"/>
    <trip id="338" depart="228.00" from="447556686" to="763969664#1-AddedOnRampEdge"/>
    <trip id="339" depart="228.00" from="334283253#1" to="59868454"/>
    <trip id="340" depart="229.00" from="457307902#0" to="181355866#2"/>
    <trip id="341" depart="229.00" from="40541065#0" to="335518636#0-AddedOffRampEdge"/>
    <trip id="342" depart="230.00" from="187184134#0" to="-40541062#2"/>
    <trip id="343" depart="230.00" from="263739437#0" to="456638573#2"/>
    <trip id="344" depart="231.00" from="28258922#0" to="59140305#0"/>
    <trip id="345" depart="231.00" from="59140288#0" to="246573556#0"/>
    <trip id="346" depart="231.00" from="-59140341#1" to="263309131#4"/>
    <trip id="347" depart="232.00" from="334281912#0" to="334971109#0"/>
    <trip id="348" depart="232.00" from="763969653" to="-59140344#10"/>
    <trip id="349" depart="232.00" from="-607051724" to="-59868440#1"/>
    <trip id="350" depart="233.00" from="333403957" to="59128845#0"/>
    <trip id="351" depart="234.00" from="-59140341#3" to="246573548#2"/>
    <trip id="352" depart="234.00" from="59128886#0" to="254489533#3"/>
    <trip id="353" depart="234.00" from="287208894#1-AddedOffRampEdge" to="-59868424#1"/>
    <trip id="354" depart="235.00" from="457983484#1-AddedOnRampEdge" to="337129678#1"/>
    <trip id="355" depart="235.00" from="258248021#0-AddedOffRampEdge" to="287208894#1-AddedOffRampEdge"/>
    <trip id="356" depart="236.00" from="59868406#2" to="447554166"/>
    <trip id="357" depart="237.00" from="457983491" to="-59140355#4"/>
    <trip id="358" depart="237.00" from="266577945#5" to="89567410#3"/>
    <trip id="359" depart="238.00" from="263739437#1" to="263773392#1"/>
    <trip id="360" depart="240.00" from="245402049#0" to="287208890#0"/>
    <trip id="361" depart="240.00" from="242758175#0" to="-59140302#0"/>
    <trip id="362" depart="241.00" from="59140346" to="258248017#1"/>
    <trip id="363" depart="241.00" from="550169269" to="246573568#5"/>
    <trip id="364" depart="241.00" from="59140312#4" to="-59128842#3"/>
    <trip id="365" depart="243.00" from="59140295#2" to="59140336#15"/>
    <trip id="366" depart="243.00" from="-59868430#1" to="55683011#7"/>
    <trip id="367" depart="244.00" from="-245402060#1" to="263309131#2"/>
    <trip id="368" depart="246.00" from="463727052#1" to="457984365#1"/>
    <trip id="369" depart="246.00" from="59868430#1" to="335523979"/>
    <trip id="370" depart="247.00" from="181454362#0" to="550169263"/>
    <trip id="371" depart="248.00" from="28296475#9" to="335527357#3"/>
    <trip id="372" depart="248.00" from="-258248759" to="89567410#3"/>
    <trip id="373" depart="251.00" from="40541063#5" to="333403964"/>
    <trip id="374" depart="252.00" from="-457983493#0" to="235266554"/>
    <trip id="375" depart="252.00" from="259864876#0" to="457308488"/>
    <trip id="376" depart="254.00" from="59140345#8" to="28276817#1"/>
    <trip id="377" depart="254.00" from="59140297#0" to="-59128864#8"/>
    <trip id="378" depart="255.00" from="242758174#0" to="457984362#1"/>
    <trip id="379" depart="256.00" from="334971108#0" to="335518631#2"/>
    <trip id="380" depart="256.00" from="-59868447#1" to="263309131#2"/>
    <trip id="381" depart="256.00" from="254607358#1" to="55683011#7"/>
    <trip id="382" depart="257.00" from="263309131#4" to="334281571"/>
    <trip id="383" depart="259.00" from="449218910#1" to="334281571"/>
    <trip id="384" depart="259.00" from="59140335" to="235000070#1"/>
    <trip id="385" depart="259.00" from="969449155#6" to="335527357#3"/>
    <trip id="386" depart="260.00" from="369790063#2" to="266577945#4"/>
    <trip id="387" depart="261.00" from="55683011#3" to="-39820421#1"/>
    <trip id="388" depart="261.00" from="-40541070#3" to="-40541060#4"/>
    <trip id="389" depart="262.00" from="28276810#1-AddedOnRampEdge" to="142321458#4"/>
    <trip id="390" depart="262.00" from="337129678#0" to="59868410#5"/>
    <trip id="391" depart="263.00" from="28296475#9" to="447556683#2"/>
    <trip id="392" depart="263.00" from="187184132#0" to="142324647#1"/>
    <trip id="393" depart="263.00" from="-59140345#4" to="-246573547#5"/>
    <trip id="394" depart="264.00" from="457983493#0" to="-246573560#1"/>
    <trip id="395" depart="264.00" from="550169268#0" to="-59868418#1"/>
    <trip id="396" depart="265.00" from="382974141#1" to="-258248017#0"/>
    <trip id="397" depart="266.00" from="337335334#0" to="59128842#0"/>
    <trip id="398" depart="266.00" from="59868448#1" to="-438980755"/>
    <trip id="399" depart="267.00" from="216639727#1" to="257224673#1"/>
    <trip id="400" depart="268.00" from="335527350" to="187184134#1"/>
    <trip id="401" depart="268.00" from="335518636#0-AddedOffRampEdge" to="-59140317#0"/>
    <trip id="402" depart="269.00" from="28275325#0" to="181355868#3"/>
    <trip id="403" depart="269.00" from="142321459#4" to="335518664#1"/>