<?xml version="1.0" encoding="UTF-8"?>

<!-- generated on 05/28/23 14:43:03 by Eclipse SUMO jtrrouter Version 1.8.0
<configuration xmlns:xsi="http://www.w3.org/2001/XMLSchema-instance" xsi:noNamespaceSchemaLocation="http://sumo.dlr.de/xsd/jtrrouterConfiguration.xsd">

    <input>
        <net-file value="test_2.net.xml"/>
        <route-files value="test_2demo.rou.xml"/>
        <turn-ratio-files value="turn.xml"/>
    </input>

    <output>
        <output-file value="test_2.rou.xml"/>
    </output>

    <processing>
        <no-internal-links value="true"/>
    </processing>

    <time>
        <begin value="0"/>
        <end value="2000"/>
    </time>

    <random_number>
        <seed value="3000"/>
    </random_number>

</configuration>
-->

<routes xmlns:xsi="http://www.w3.org/2001/XMLSchema-instance" xsi:noNamespaceSchemaLocation="http://sumo.dlr.de/xsd/routes_file.xsd">
    <vehicle id="flow1.0" depart="0.00" color="red">
        <route edges="edg2 edg5"/>
    </vehicle>
    <vehicle id="flow2.0" depart="0.00" color="green">
        <route edges="edg4 edg10"/>
    </vehicle>
    <vehicle id="flow3.0" depart="0.00" color="blue">
        <route edges="edg9 edg3"/>
    </vehicle>
    <vehicle id="flow4.0" depart="0.00" color="yellow">
        <route edges="edg19 edg13 edg3"/>
    </vehicle>
    <vehicle id="flow5.0" depart="0.00" color="magenta">
        <route edges="edg6 edg8 edg10"/>
    </vehicle>
    <vehicle id="flow6.0" depart="0.00" color="cyan">
        <route edges="edg16 edg11 edg5"/>
    </vehicle>
    <vehicle id="flow7.0" depart="0.00" color="white">
        <route edges="edg21 edg15"/>
    </vehicle>
    <vehicle id="flow8.0" depart="0.00" color="77,179,102">
        <route edges="edg23 edg17 edg15"/>
    </vehicle>
    <vehicle id="flow4.1" depart="1.64" color="yellow">
        <route edges="edg19 edg24"/>
    </vehicle>
    <vehicle id="flow5.1" depart="1.80" color="magenta">
        <route edges="edg6 edg1"/>
    </vehicle>
    <vehicle id="flow2.1" depart="2.00" color="green">
        <route edges="edg4 edg10"/>
    </vehicle>
    <vehicle id="flow3.1" depart="2.57" color="blue">
        <route edges="edg9 edg7 edg12 edg18 edg24"/>
    </vehicle>
    <vehicle id="flow7.1" depart="2.57" color="white">
        <route edges="edg21 edg18 edg20"/>
    </vehicle>
    <vehicle id="flow1.1" depart="3.00" color="red">
        <route edges="edg2 edg12 edg18 edg20"/>
    </vehicle>
    <vehicle id="flow8.1" depart="3.00" color="77,179,102">
        <route edges="edg23 edg13 edg10"/>
    </vehicle>
    <vehicle id="flow4.2" depart="3.27" color="yellow">
        <route edges="edg19 edg24"/>
    </vehicle>
    <vehicle id="flow5.2" depart="3.60" color="magenta">
        <route edges="edg6 edg1"/>
    </vehicle>
    <vehicle id="flow6.1" depart="3.60" color="cyan">
        <route edges="edg16 edg11 edg1"/>
    </vehicle>
    <vehicle id="flow2.2" depart="4.00" color="green">
        <route edges="edg4 edg10"/>
    </vehicle>
    <vehicle id="flow4.3" depart="4.91" color="yellow">
        <route edges="edg19 edg13 edg7 edg12 edg22"/>
    </vehicle>
    <vehicle id="flow3.2" depart="5.14" color="blue">
        <route edges="edg9 edg14 edg20"/>
    </vehicle>
    <vehicle id="flow7.2" depart="5.14" color="white">
        <route edges="edg21 edg15"/>
    </vehicle>
    <vehicle id="flow5.3" depart="5.40" color="magenta">
        <route edges="edg6 edg12 edg18 edg24"/>
    </vehicle>
    <vehicle id="flow1.2" depart="6.00" color="red">
        <route edges="edg2 edg12 edg18 edg24"/>
    </vehicle>
    <vehicle id="flow2.3" depart="6.00" color="green">
        <route edges="edg4 edg14 edg24"/>
    </vehicle>
    <vehicle id="flow8.2" depart="6.00" color="77,179,102">
        <route edges="edg23 edg17 edg11 edg8 edg14 edg24"/>
    </vehicle>
    <vehicle id="flow4.4" depart="6.54" color="yellow">
        <route edges="edg19 edg17 edg22"/>
    </vehicle>
    <vehicle id="flow5.4" depart="7.20" color="magenta">
        <route edges="edg6 edg1"/>
    </vehicle>
    <vehicle id="flow6.2" depart="7.20" color="cyan">
        <route edges="edg16 edg11 edg5"/>
    </vehicle>
    <vehicle id="flow3.3" depart="7.71" color="blue">
        <route edges="edg9 edg3"/>
    </vehicle>
    <vehicle id="flow7.3" depart="7.71" color="white">
        <route edges="edg21 edg18 edg24"/>
    </vehicle>
    <vehicle id="flow2.4" depart="8.00" color="green">
        <route edges="edg4 edg14 edg24"/>
    </vehicle>
    <vehicle id="flow4.5" depart="8.18" color="yellow">
        <route edges="edg19 edg24"/>
    </vehicle>
    <vehicle id="flow1.3" depart="9.00" color="red">
        <route edges="edg2 edg5"/>
    </vehicle>
    <vehicle id="flow5.5" depart="9.00" color="magenta">
        <route edges="edg6 edg1"/>
    </vehicle>
    <vehicle id="flow8.3" depart="9.00" color="77,179,102">
        <route edges="edg23 edg13 edg7 edg5"/>
    </vehicle>
    <vehicle id="flow4.6" depart="9.82" color="yellow">
        <route edges="edg19 edg24"/>
    </vehicle>
    <vehicle id="flow2.5" depart="10.00" color="green">
        <route edges="edg4 edg7 edg5"/>
    </vehicle>
    <vehicle id="flow3.4" depart="10.28" color="blue">
        <route edges="edg9 edg14 edg24"/>
    </vehicle>
    <vehicle id="flow7.4" depart="10.28" color="white">
        <route edges="edg21 edg15"/>
    </vehicle>
    <vehicle id="flow5.6" depart="10.80" color="magenta">
        <route edges="edg6 edg8 edg14 edg17 edg15"/>
    </vehicle>
    <vehicle id="flow6.3" depart="10.80" color="cyan">
        <route edges="edg16 edg11 edg5"/>
    </vehicle>
    <vehicle id="flow4.7" depart="11.45" color="yellow">
        <route edges="edg19 edg24"/>
    </vehicle>
    <vehicle id="flow1.4" depart="12.00" color="red">
        <route edges="edg2 edg12 edg22"/>
    </vehicle>
    <vehicle id="flow2.6" depart="12.00" color="green">
        <route edges="edg4 edg10"/>
    </vehicle>
    <vehicle id="flow8.4" depart="12.00" color="77,179,102">
        <route edges="edg23 edg13 edg7 edg1"/>
    </vehicle>
    <vehicle id="flow5.7" depart="12.60" color="magenta">
        <route edges="edg6 edg1"/>
    </vehicle>
    <vehicle id="flow3.5" depart="12.86" color="blue">
        <route edges="edg9 edg7 edg5"/>
    </vehicle>
    <vehicle id="flow7.5" depart="12.86" color="white">
        <route edges="edg21 edg18 edg20"/>
    </vehicle>
    <vehicle id="flow4.8" depart="13.09" color="yellow">
        <route edges="edg19 edg13 edg10"/>
    </vehicle>
    <vehicle id="flow2.7" depart="14.00" color="green">
        <route edges="edg4 edg10"/>
    </vehicle>
    <vehicle id="flow5.8" depart="14.40" color="magenta">
        <route edges="edg6 edg12 edg18 edg24"/>
    </vehicle>
    <vehicle id="flow6.4" depart="14.40" color="cyan">
        <route edges="edg16 edg11 edg1"/>
    </vehicle>
    <vehicle id="flow4.9" depart="14.72" color="yellow">
        <route edges="edg19 edg17 edg11 edg5"/>
    </vehicle>
    <vehicle id="flow1.5" depart="15.00" color="red">
        <route edges="edg2 edg8 edg10"/>
    </vehicle>
    <vehicle id="flow8.5" depart="15.00" color="77,179,102">
        <route edges="edg23 edg13 edg10"/>
    </vehicle>
    <vehicle id="flow3.6" depart="15.43" color="blue">
        <route edges="edg9 edg7 edg12 edg18 edg24"/>
    </vehicle>
    <vehicle id="flow7.6" depart="15.43" color="white">
        <route edges="edg21 edg18 edg24"/>
    </vehicle>
    <vehicle id="flow2.8" depart="16.00" color="green">
        <route edges="edg4 edg14 edg24"/>
    </vehicle>
    <vehicle id="flow5.9" depart="16.20" color="magenta">
        <route edges="edg6 edg12 edg18 edg13 edg10"/>
    </vehicle>
    <vehicle id="flow4.10" depart="16.36" color="yellow">
        <route edges="edg19 edg13 edg10"/>
    </vehicle>
    <vehicle id="flow4.11" depart="18.00" color="yellow">
        <route edges="edg19 edg24"/>
    </vehicle>
    <vehicle id="flow3.7" depart="18.00" color="blue">
        <route edges="edg9 edg7 edg1"/>
    </vehicle>
    <vehicle id="flow7.7" depart="18.00" color="white">
        <route edges="edg21 edg11 edg1"/>
    </vehicle>
    <vehicle id="flow1.6" depart="18.00" color="red">
        <route edges="edg2 edg5"/>
    </vehicle>
    <vehicle id="flow2.9" depart="18.00" color="green">
        <route edges="edg4 edg10"/>
    </vehicle>
    <vehicle id="flow5.10" depart="18.00" color="magenta">
        <route edges="edg6 edg8 edg10"/>
    </vehicle>
    <vehicle id="flow6.5" depart="18.00" color="cyan">
        <route edges="edg16 edg11 edg5"/>
    </vehicle>
    <vehicle id="flow8.6" depart="18.00" color="77,179,102">
        <route edges="edg23 edg17 edg15"/>
    </vehicle>
    <vehicle id="flow4.12" depart="19.63" color="yellow">
        <route edges="edg19 edg24"/>
    </vehicle>
    <vehicle id="flow5.11" depart="19.80" color="magenta">
        <route edges="edg6 edg8 edg10"/>
    </vehicle>
    <vehicle id="flow2.10" depart="20.00" color="green">
        <route edges="edg4 edg10"/>
    </vehicle>
    <vehicle id="flow3.8" depart="20.57" color="blue">
        <route edges="edg9 edg3"/>
    </vehicle>
    <vehicle id="flow7.8" depart="20.57" color="white">
        <route edges="edg21 edg18 edg13 edg7 edg12 edg22"/>
    </vehicle>
    <vehicle id="flow1.7" depart="21.00" color="red">
        <route edges="edg2 edg5"/>
    </vehicle>
    <vehicle id="flow8.7" depart="21.00" color="77,179,102">
        <route edges="edg23 edg17 edg22"/>
    </vehicle>
    <vehicle id="flow4.13" depart="21.27" color="yellow">
        <route edges="edg19 edg13 edg10"/>
    </vehicle>
    <vehicle id="flow5.12" depart="21.60" color="magenta">
        <route edges="edg6 edg8 edg3"/>
    </vehicle>
    <vehicle id="flow6.6" depart="21.60" color="cyan">
        <route edges="edg16 edg18 edg24"/>
    </vehicle>
    <vehicle id="flow2.11" depart="22.00" color="green">
        <route edges="edg4 edg7 edg1"/>
    </vehicle>
    <vehicle id="flow4.14" depart="22.90" color="yellow">
        <route edges="edg19 edg24"/>
    </vehicle>
    <vehicle id="flow3.9" depart="23.14" color="blue">
        <route edges="edg9 edg7 edg5"/>
    </vehicle>
    <vehicle id="flow7.9" depart="23.14" color="white">
        <route edges="edg21 edg11 edg1"/>
    </vehicle>
    <vehicle id="flow5.13" depart="23.40" color="magenta">
        <route edges="edg6 edg1"/>
    </vehicle>
    <vehicle id="flow1.8" depart="24.00" color="red">
        <route edges="edg2 edg8 edg10"/>
    </vehicle>
    <vehicle id="flow2.12" depart="24.00" color="green">
        <route edges="edg4 edg14 edg17 edg15"/>
    </vehicle>
    <vehicle id="flow8.8" depart="24.00" color="77,179,102">
        <route edges="edg23 edg13 edg10"/>
    </vehicle>
    <vehicle id="flow4.15" depart="24.54" color="yellow">
        <route edges="edg19 edg17 edg11 edg5"/>
    </vehicle>
    <vehicle id="flow5.14" depart="25.20" color="magenta">
        <route edges="edg6 edg12 edg18 edg13 edg7 edg5"/>
    </vehicle>
    <vehicle id="flow6.7" depart="25.20" color="cyan">
        <route edges="edg16 edg22"/>
    </vehicle>
    <vehicle id="flow3.10" depart="25.71" color="blue">
        <route edges="edg9 edg7 edg12 edg22"/>
    </vehicle>
    <vehicle id="flow7.10" depart="25.71" color="white">
        <route edges="edg21 edg15"/>
    </vehicle>
    <vehicle id="flow2.13" depart="26.00" color="green">
        <route edges="edg4 edg7 edg5"/>
    </vehicle>
    <vehicle id="flow4.16" depart="26.18" color="yellow">
        <route edges="edg19 edg17 edg11 edg8 edg10"/>
    </vehicle>
    <vehicle id="flow1.9" depart="27.00" color="red">
        <route edges="edg2 edg12 edg15"/>
    </vehicle>
    <vehicle id="flow5.15" depart="27.00" color="magenta">
        <route edges="edg6 edg1"/>
    </vehicle>
    <vehicle id="flow8.9" depart="27.00" color="77,179,102">
        <route edges="edg23 edg13 edg10"/>
    </vehicle>
    <vehicle id="flow4.17" depart="27.81" color="yellow">
        <route edges="edg19 edg17 edg15"/>
    </vehicle>
    <vehicle id="flow2.14" depart="28.00" color="green">
        <route edges="edg4 edg10"/>
    </vehicle>
    <vehicle id="flow3.11" depart="28.28" color="blue">
        <route edges="edg9 edg14 edg17 edg15"/>
    </vehicle>
    <vehicle id="flow7.11" depart="28.28" color="white">
        <route edges="edg21 edg15"/>
    </vehicle>
    <vehicle id="flow5.16" depart="28.80" color="magenta">
        <route edges="edg6 edg1"/>
    </vehicle>
    <vehicle id="flow6.8" depart="28.80" color="cyan">
        <route edges="edg16 edg18 edg20"/>
    </vehicle>
    <vehicle id="flow4.18" depart="29.45" color="yellow">
        <route edges="edg19 edg24"/>
    </vehicle>
    <vehicle id="flow1.10" depart="30.00" color="red">
        <route edges="edg2 edg12 edg18 edg24"/>
    </vehicle>
    <vehicle id="flow2.15" depart="30.00" color="green">
        <route edges="edg4 edg10"/>
    </vehicle>
    <vehicle id="flow8.10" depart="30.00" color="77,179,102">
        <route edges="edg23 edg17 edg15"/>
    </vehicle>
    <vehicle id="flow5.17" depart="30.60" color="magenta">
        <route edges="edg6 edg8 edg14 edg20"/>
    </vehicle>
    <vehicle id="flow3.12" depart="30.85" color="blue">
        <route edges="edg9 edg14 edg24"/>
    </vehicle>
    <vehicle id="flow7.12" depart="30.85" color="white">
        <route edges="edg21 edg18 edg24"/>
    </vehicle>
    <vehicle id="flow4.19" depart="31.08" color="yellow">
        <route edges="edg19 edg24"/>
    </vehicle>
    <vehicle id="flow2.16" depart="32.00" color="green">
        <route edges="edg4 edg10"/>
    </vehicle>
    <vehicle id="flow5.18" depart="32.40" color="magenta">
        <route edges="edg6 edg1"/>
    </vehicle>
    <vehicle id="flow6.9" depart="32.40" color="cyan">
        <route edges="edg16 edg11 edg5"/>
    </vehicle>
    <vehicle id="flow4.20" depart="32.72" color="yellow">
        <route edges="edg19 edg17 edg15"/>
    </vehicle>
    <vehicle id="flow1.11" depart="33.00" color="red">
        <route edges="edg2 edg5"/>
    </vehicle>
    <vehicle id="flow8.11" depart="33.00" color="77,179,102">
        <route edges="edg23 edg20"/>
    </vehicle>
    <vehicle id="flow3.13" depart="33.42" color="blue">
        <route edges="edg9 edg7 edg12 edg18 edg24"/>
    </vehicle>
    <vehicle id="flow7.13" depart="33.42" color="white">
        <route edges="edg21 edg18 edg24"/>
    </vehicle>
    <vehicle id="flow2.17" depart="34.00" color="green">
        <route edges="edg4 edg10"/>
    </vehicle>
    <vehicle id="flow5.19" depart="34.20" color="magenta">
        <route edges="edg6 edg1"/>
    </vehicle>
    <vehicle id="flow4.21" depart="34.36" color="yellow">
        <route edges="edg19 edg17 edg11 edg1"/>
    </vehicle>
    <vehicle id="flow4.22" depart="35.99" color="yellow">
        <route edges="edg19 edg17 edg11 edg5"/>
    </vehicle>
    <vehicle id="flow3.14" depart="35.99" color="blue">
        <route edges="edg9 edg14 edg24"/>
    </vehicle>
    <vehicle id="flow7.14" depart="35.99" color="white">
        <route edges="edg21 edg11 edg1"/>
    </vehicle>
    <vehicle id="flow1.12" depart="36.00" color="red">
        <route edges="edg2 edg8 edg10"/>
    </vehicle>
    <vehicle id="flow2.18" depart="36.00" color="green">
        <route edges="edg4 edg10"/>
    </vehicle>
    <vehicle id="flow5.20" depart="36.00" color="magenta">
        <route edges="edg6 edg12 edg18 edg24"/>
    </vehicle>
    <vehicle id="flow6.10" depart="36.00" color="cyan">
        <route edges="edg16 edg11 edg8 edg14 edg24"/>
    </vehicle>
    <vehicle id="flow8.12" depart="36.00" color="77,179,102">
        <route edges="edg23 edg13 edg7 edg12 edg15"/>
    </vehicle>
    <vehicle id="flow4.23" depart="37.63" color="yellow">
        <route edges="edg19 edg13 edg7 edg1"/>
    </vehicle>
    <vehicle id="flow5.21" depart="37.80" color="magenta">
        <route edges="edg6 edg1"/>
    </vehicle>
    <vehicle id="flow2.19" depart="38.00" color="green">
        <route edges="edg4 edg10"/>
    </vehicle>
    <vehicle id="flow3.15" depart="38.57" color="blue">
        <route edges="edg9 edg14 edg17 edg15"/>
    </vehicle>
    <vehicle id="flow7.15" depart="38.57" color="white">
        <route edges="edg21 edg15"/>
    </vehicle>
    <vehicle id="flow1.13" depart="39.00" color="red">
        <route edges="edg2 edg8 edg14 edg17 edg11 edg5"/>
    </vehicle>
    <vehicle id="flow8.13" depart="39.00" color="77,179,102">
        <route edges="edg23 edg20"/>
    </vehicle>
    <vehicle id="flow4.24" depart="39.26" color="yellow">
        <route edges="edg19 edg17 edg15"/>
    </vehicle>
    <vehicle id="flow5.22" depart="39.60" color="magenta">
        <route edges="edg6 edg1"/>
    </vehicle>
    <vehicle id="flow6.11" depart="39.60" color="cyan">
        <route edges="edg16 edg18 edg20"/>
    </vehicle>
    <vehicle id="flow2.20" depart="40.00" color="green">
        <route edges="edg4 edg10"/>
    </vehicle>
    <vehicle id="flow4.25" depart="40.90" color="yellow">
        <route edges="edg19 edg24"/>
    </vehicle>
    <vehicle id="flow3.16" depart="41.14" color="blue">
        <route edges="edg9 edg14 edg20"/>
    </vehicle>
    <vehicle id="flow7.16" depart="41.14" color="white">
        <route edges="edg21 edg18 edg24"/>
    </vehicle>
    <vehicle id="flow5.23" depart="41.40" color="magenta">
        <route edges="edg6 edg8 edg14 edg24"/>
    </vehicle>
    <vehicle id="flow1.14" depart="42.00" color="red">
        <route edges="edg2 edg12 edg22"/>
    </vehicle>
    <vehicle id="flow2.21" depart="42.00" color="green">
        <route edges="edg4 edg10"/>
    </vehicle>
    <vehicle id="flow8.14" depart="42.00" color="77,179,102">
        <route edges="edg23 edg20"/>
    </vehicle>
    <vehicle id="flow4.26" depart="42.54" color="yellow">
        <route edges="edg19 edg13 edg3"/>
    </vehicle>
    <vehicle id="flow5.24" depart="43.20" color="magenta">
        <route edges="edg6 edg8 edg10"/>
    </vehicle>
    <vehicle id="flow6.12" depart="43.20" color="cyan">
        <route edges="edg16 edg18 edg24"/>
    </vehicle>
    <vehicle id="flow3.17" depart="43.71" color="blue">
        <route edges="edg9 edg3"/>
    </vehicle>
    <vehicle id="flow7.17" depart="43.71" color="white">
        <route edges="edg21 edg15"/>
    </vehicle>
    <vehicle id="flow2.22" depart="44.00" color="green">
        <route edges="edg4 edg7 edg12 edg22"/>
    </vehicle>
    <vehicle id="flow4.27" depart="44.17" color="yellow">
        <route edges="edg19 edg17 edg11 edg8 edg14 edg24"/>
    </vehicle>
    <vehicle id="flow1.15" depart="45.00" color="red">
        <route edges="edg2 edg12 edg15"/>
    </vehicle>
    <vehicle id="flow5.25" depart="45.00" color="magenta">
        <route edges="edg6 edg8 edg10"/>
    </vehicle>
    <vehicle id="flow8.15" depart="45.00" color="77,179,102">
        <route edges="edg23 edg17 edg11 edg5"/>
    </vehicle>
    <vehicle id="flow4.28" depart="45.81" color="yellow">
        <route edges="edg19 edg24"/>
    </vehicle>
    <vehicle id="flow2.23" depart="46.00" color="green">
        <route edges="edg4 edg14 edg24"/>
    </vehicle>
    <vehicle id="flow3.18" depart="46.28" color="blue">
        <route edges="edg9 edg14 edg20"/>
    </vehicle>
    <vehicle id="flow7.18" depart="46.28" color="white">
        <route edges="edg21 edg15"/>
    </vehicle>
    <vehicle id="flow5.26" depart="46.80" color="magenta">
        <route edges="edg6 edg8 edg3"/>
    </vehicle>
    <vehicle id="flow6.13" depart="46.80" color="cyan">
        <route edges="edg16 edg22"/>
    </vehicle>
    <vehicle id="flow4.29" depart="47.44" color="yellow">
        <route edges="edg19 edg17 edg11 edg5"/>
    </vehicle>
    <vehicle id="flow1.16" depart="48.00" color="red">
        <route edges="edg2 edg12 edg22"/>
    </vehicle>
    <vehicle id="flow2.24" depart="48.00" color="green">
        <route edges="edg4 edg10"/>
    </vehicle>
    <vehicle id="flow8.16" depart="48.00" color="77,179,102">
        <route edges="edg23 edg13 edg10"/>
    </vehicle>
    <vehicle id="flow5.27" depart="48.60" color="magenta">
        <route edges="edg6 edg1"/>
    </vehicle>
    <vehicle id="flow3.19" depart="48.85" color="blue">
        <route edges="edg9 edg14 edg17 edg15"/>
    </vehicle>
    <vehicle id="flow7.19" depart="48.85" color="white">
        <route edges="edg21 edg18 edg24"/>
    </vehicle>
    <vehicle id="flow4.30" depart="49.08" color="yellow">
        <route edges="edg19 edg13 edg7 edg12 edg22"/>
    </vehicle>
    <vehicle id="flow2.25" depart="50.00" color="green">
        <route edges="edg4 edg7 edg12 edg18 edg13 edg3"/>
    </vehicle>
    <vehicle id="flow5.28" depart="50.40" color="magenta">
        <route edges="edg6 edg12 edg18 edg24"/>
    </vehicle>
    <vehicle id="flow6.14" depart="50.40" color="cyan">
        <route edges="edg16 edg18 edg20"/>
    </vehicle>
    <vehicle id="flow4.31" depart="50.72" color="yellow">
        <route edges="edg19 edg17 edg22"/>
    </vehicle>
    <vehicle id="flow1.17" depart="51.00" color="red">
        <route edges="edg2 edg8 edg14 edg24"/>
    </vehicle>
    <vehicle id="flow8.17" depart="51.00" color="77,179,102">
        <route edges="edg23 edg13 edg10"/>
    </vehicle>
    <vehicle id="flow3.20" depart="51.42" color="blue">
        <route edges="edg9 edg7 edg5"/>
    </vehicle>
    <vehicle id="flow7.20" depart="51.42" color="white">
        <route edges="edg21 edg18 edg13 edg7 edg5"/>
    </vehicle>
    <vehicle id="flow2.26" depart="52.00" color="green">
        <route edges="edg4 edg7 edg12 edg18 edg24"/>
    </vehicle>
    <vehicle id="flow5.29" depart="52.20" color="magenta">
        <route edges="edg6 edg12 edg22"/>
    </vehicle>
    <vehicle id="flow4.32" depart="52.35" color="yellow">
        <route edges="edg19 edg24"/>
    </vehicle>
    <vehicle id="flow4.33" depart="53.99" color="yellow">
        <route edges="edg19 edg24"/>
    </vehicle>
    <vehicle id="flow3.21" depart="53.99" color="blue">
        <route edges="edg9 edg7 edg1"/>
    </vehicle>
    <vehicle id="flow7.21" depart="53.99" color="white">
        <route edges="edg21 edg18 edg24"/>
    </vehicle>
    <vehicle id="flow1.18" depart="54.00" color="red">
        <route edges="edg2 edg12 edg18 edg24"/>
    </vehicle>
    <vehicle id="flow2.27" depart="54.00" color="green">
        <route edges="edg4 edg10"/>
    </vehicle>
    <vehicle id="flow5.30" depart="54.00" color="magenta">
        <route edges="edg6 edg1"/>
    </vehicle>
    <vehicle id="flow6.15" depart="54.00" color="cyan">
        <route edges="edg16 edg18 edg13 edg3"/>
    </vehicle>
    <vehicle id="flow8.18" depart="54.00" color="77,179,102">
        <route edges="edg23 edg13 edg10"/>
    </vehicle>
    <vehicle id="flow4.34" depart="55.62" color="yellow">
        <route edges="edg19 edg17 edg11 edg1"/>
    </vehicle>
    <vehicle id="flow5.31" depart="55.80" color="magenta">
        <route edges="edg6 edg1"/>
    </vehicle>
    <vehicle id="flow2.28" depart="56.00" color="green">
        <route edges="edg4 edg14 edg24"/>
    </vehicle>
    <vehicle id="flow3.22" depart="56.56" color="blue">
        <route edges="edg9 edg3"/>
    </vehicle>
    <vehicle id="flow7.22" depart="56.56" color="white">
        <route edges="edg21 edg15"/>
    </vehicle>
    <vehicle id="flow1.19" depart="57.00" color="red">
        <route edges="edg2 edg5"/>
    </vehicle>
    <vehicle id="flow8.19" depart="57.00" color="77,179,102">
        <route edges="edg23 edg20"/>
    </vehicle>
    <vehicle id="flow4.35" depart="57.26" color="yellow">
        <route edges="edg19 edg17 edg22"/>
    </vehicle>
    <vehicle id="flow5.32" depart="57.60" color="magenta">
        <route edges="edg6 edg1"/>
    </vehicle>
    <vehicle id="flow6.16" depart="57.60" color="cyan">
        <route edges="edg16 edg18 edg24"/>
    </vehicle>
    <vehicle id="flow2.29" depart="58.00" color="green">
        <route edges="edg4 edg14 edg20"/>
    </vehicle>
    <vehicle id="flow4.36" depart="58.90" color="yellow">
        <route edges="edg19 edg24"/>
    </vehicle>
    <vehicle id="flow3.23" depart="59.13" color="blue">
        <route edges="edg9 edg3"/>
    </vehicle>
    <vehicle id="flow7.23" depart="59.13" color="white">
        <route edges="edg21 edg18 edg13 edg10"/>
    </vehicle>
    <vehicle id="flow5.33" depart="59.40" color="magenta">
        <route edges="edg6 edg12 edg18 edg20"/>
    </vehicle>
    <vehicle id="flow1.20" depart="60.00" color="red">
        <route edges="edg2 edg12 edg22"/>
    </vehicle>
    <vehicle id="flow2.30" depart="60.00" color="green">
        <route edges="edg4 edg14 edg24"/>
    </vehicle>
    <vehicle id="flow8.20" depart="60.00" color="77,179,102">
        <route edges="edg23 edg17 edg15"/>
    </vehicle>
    <vehicle id="flow4.37" depart="60.53" color="yellow">
        <route edges="edg19 edg17 edg15"/>
    </vehicle>
    <vehicle id="flow5.34" depart="61.20" color="magenta">
        <route edges="edg6 edg12 edg18 edg20"/>
    </vehicle>
    <vehicle id="flow6.17" depart="61.20" color="cyan">
        <route edges="edg16 edg22"/>
    </vehicle>
    <vehicle id="flow3.24" depart="61.70" color="blue">
        <route edges="edg9 edg3"/>
    </vehicle>
    <vehicle id="flow7.24" depart="61.70" color="white">
        <route edges="edg21 edg18 edg24"/>
    </vehicle>
    <vehicle id="flow2.31" depart="62.00" color="green">
        <route edges="edg4 edg7 edg5"/>
    </vehicle>
    <vehicle id="flow4.38" depart="62.17" color="yellow">
        <route edges="edg19 edg24"/>
    </vehicle>
    <vehicle id="flow1.21" depart="63.00" color="red">
        <route edges="edg2 edg8 edg3"/>
    </vehicle>
    <vehicle id="flow5.35" depart="63.00" color="magenta">
        <route edges="edg6 edg12 edg18 edg24"/>
    </vehicle>
    <vehicle id="flow8.21" depart="63.00" color="77,179,102">
        <route edges="edg23 edg17 edg22"/>
    </vehicle>
    <vehicle id="flow4.39" depart="63.80" color="yellow">
        <route edges="edg19 edg24"/>
    </vehicle>
    <vehicle id="flow2.32" depart="64.00" color="green">
        <route edges="edg4 edg10"/>
    </vehicle>
    <vehicle id="flow3.25" depart="64.28" color="blue">
        <route edges="edg9 edg3"/>
    </vehicle>
    <vehicle id="flow7.25" depart="64.28" color="white">
        <route edges="edg21 edg15"/>
    </vehicle>
    <vehicle id="flow5.36" depart="64.80" color="magenta">
        <route edges="edg6 edg12 edg22"/>
    </vehicle>
    <vehicle id="flow6.18" depart="64.80" color="cyan">
        <route edges="edg16 edg22"/>
    </vehicle>
    <vehicle id="flow4.40" depart="65.44" color="yellow">
        <route edges="edg19 edg24"/>
    </vehicle>
    <vehicle id="flow1.22" depart="66.00" color="red">
        <route edges="edg2 edg12 edg22"/>
    </vehicle>
    <vehicle id="flow2.33" depart="66.00" color="green">
        <route edges="edg4 edg10"/>
    </vehicle>
    <vehicle id="flow8.22" depart="66.00" color="77,179,102">
        <route edges="edg23 edg17 edg11 edg5"/>
    </vehicle>
    <vehicle id="flow5.37" depart="66.60" color="magenta">
        <route edges="edg6 edg1"/>
    </vehicle>
    <vehicle id="flow3.26" depart="66.85" color="blue">
        <route edges="edg9 edg14 edg20"/>
    </vehicle>
    <vehicle id="flow7.26" depart="66.85" color="white">
        <route edges="edg21 edg18 edg13 edg7 edg5"/>
    </vehicle>
    <vehicle id="flow4.41" depart="67.08" color="yellow">
        <route edges="edg19 edg17 edg22"/>
    </vehicle>
    <vehicle id="flow2.34" depart="68.00" color="green">
        <route edges="edg4 edg14 edg24"/>
    </vehicle>
    <vehicle id="flow5.38" depart="68.40" color="magenta">
        <route edges="edg6 edg1"/>
    </vehicle>
    <vehicle id="flow6.19" depart="68.40" color="cyan">
        <route edges="edg16 edg11 edg1"/>
    </vehicle>
    <vehicle id="flow4.42" depart="68.71" color="yellow">
        <route edges="edg19 edg24"/>
    </vehicle>
    <vehicle id="flow1.23" depart="69.00" color="red">
        <route edges="edg2 edg12 edg22"/>
    </vehicle>
    <vehicle id="flow8.23" depart="69.00" color="77,179,102">
        <route edges="edg23 edg17 edg15"/>
    </vehicle>
    <vehicle id="flow3.27" depart="69.42" color="blue">
        <route edges="edg9 edg3"/>
    </vehicle>
    <vehicle id="flow7.27" depart="69.42" color="white">
        <route edges="edg21 edg15"/>
    </vehicle>
    <vehicle id="flow2.35" depart="70.00" color="green">
        <route edges="edg4 edg10"/>
    </vehicle>
    <vehicle id="flow5.39" depart="70.20" color="magenta">
        <route edges="edg6 edg1"/>
    </vehicle>
    <vehicle id="flow4.43" depart="70.35" color="yellow">
        <route edges="edg19 edg24"/>
    </vehicle>
    <vehicle id="flow4.44" depart="71.98" color="yellow">
        <route edges="edg19 edg24"/>
    </vehicle>
    <vehicle id="flow3.28" depart="71.99" color="blue">
        <route edges="edg9 edg7 edg1"/>
    </vehicle>
    <vehicle id="flow7.28" depart="71.99" color="white">
        <route edges="edg21 edg18 edg20"/>
    </vehicle>
    <vehicle id="flow1.24" depart="72.00" color="red">
        <route edges="edg2 edg12 edg18 edg24"/>
    </vehicle>
    <vehicle id="flow2.36" depart="72.00" color="green">
        <route edges="edg4 edg7 edg5"/>
    </vehicle>
    <vehicle id="flow5.40" depart="72.00" color="magenta">
        <route edges="edg6 edg1"/>
    </vehicle>
    <vehicle id="flow6.20" depart="72.00" color="cyan">
        <route edges="edg16 edg18 edg24"/>
    </vehicle>
    <vehicle id="flow8.24" depart="72.00" color="77,179,102">
        <route edges="edg23 edg13 edg3"/>
    </vehicle>
    <vehicle id="flow4.45" depart="73.62" color="yellow">
        <route edges="edg19 edg13 edg10"/>
    </vehicle>
    <vehicle id="flow5.41" depart="73.80" color="magenta">
        <route edges="edg6 edg1"/>
    </vehicle>
    <vehicle id="flow2.37" depart="74.00" color="green">
        <route edges="edg4 edg14 edg24"/>
    </vehicle>
    <vehicle id="flow3.29" depart="74.56" color="blue">
        <route edges="edg9 edg7 edg1"/>
    </vehicle>