<?xml version="1.0" encoding="UTF-8"?>

<!-- generated on 05/04/23 15:54:47 by Eclipse SUMO duarouter Version 1.8.0
-->

<configuration xmlns:xsi="http://www.w3.org/2001/XMLSchema-instance" xsi:noNamespaceSchemaLocation="http://sumo.dlr.de/xsd/duarouterConfiguration.xsd">

    <input>
        <net-file value="../SiouxFalls.net.xml"/>
        <route-files value="../15\SiouxFalls_015.rou.alt.xml"/>
        <weight-files value="..\15\dump_015_900.xml"/>
    </input>

    <output>
        <output-file value="SiouxFalls_016.rou.xml"/>
        <exit-times value="false"/>
    </output>

    <processing>
        <max-alternatives value="5"/>
        <with-taz value="false"/>
        <weights.expand value="true"/>
        <routing-algorithm value="dijkstra"/>
        <gawron.beta value="0.9"/>
        <gawron.a value="0.5"/>
        <keep-all-routes value="false"/>
        <logit value="false"/>
        <logit.beta value="0.15"/>
        <logit.gamma value="1"/>
    </processing>

    <time>
        <begin value="0.0"/>
        <end value="1500.0"/>
    </time>

    <report>
        <verbose value="false"/>
        <no-warnings value="false"/>
        <ignore-errors value="false"/>
        <no-step-log value="true"/>
    </report>

    <random_number>
        <random value="false"/>
    </random_number>

</configuration>
