<?xml version="1.0" encoding="UTF-8"?>

<!-- generated on 05/11/23 19:54:06 by Eclipse SUMO polyconvert Version 1.8.0
<configuration xmlns:xsi="http://www.w3.org/2001/XMLSchema-instance" xsi:noNamespaceSchemaLocation="http://sumo.dlr.de/xsd/polyconvertConfiguration.xsd">

    <input>
        <net-file value="xian.net.xml"/>
        <osm-files value="xian.osm"/>
    </input>

    <output>
        <output-file value="xian.poly.xml"/>
    </output>

    <processing>
        <poi-layer-offset value="5"/>
    </processing>

</configuration>
-->

<additional xmlns:xsi="http://www.w3.org/2001/XMLSchema-instance" xsi:noNamespaceSchemaLocation="http://sumo.dlr.de/xsd/additional_file.xsd">
    <location netOffset="-303709.93,-3789796.83" convBoundary="-5675.24,-9998.72,18632.98,16159.48" origBoundary="108.805362,34.141833,109.069989,34.377574" projParameter="+proj=utm +zone=49 +ellps=WGS84 +datum=WGS84 +units=m +no_defs"/>

    <poly id="1017782151" type="man_made" color="255,230,230" fill="1" layer="-1.00" shape="6075.779528,2353.747365 6074.967741,2312.399850 6086.258880,2312.181723 6097.310571,2311.968471 6106.814831,2311.775546 6107.626477,2353.123058 6098.149888,2353.315423 6087.337693,2353.523816 6075.779528,2353.747365"/>
    <poly id="1017782156" type="man_made" color="255,230,230" fill="1" layer="-1.00" shape="5514.089733,2361.040020 5512.883674,2317.192831 5533.905971,2316.609468 5535.121367,2360.467559 5514.089733,2361.040020"/>
    <poly id="1017782157" type="man_made" color="255,230,230" fill="1" layer="-1.00" shape="5391.582380,2364.334173 5390.701129,2321.534422 5411.855524,2321.103431 5412.727468,2363.903368 5391.582380,2364.334173"/>
    <poly id="1017782158" type="man_made" color="255,230,230" fill="1" layer="-1.00" shape="5802.237742,2356.098163 5801.345788,2319.023997 5818.050577,2318.617815 5818.933255,2355.692168 5802.237742,2356.098163"/>
    <poly id="1030396551" type="building" color="255,230,230" fill="1" layer="-1.00" shape="4955.071363,4946.219410 4949.014735,4946.420875 4948.864661,4939.078638 4954.802508,4938.923984 4954.524447,4931.628747 4948.340272,4931.899392 4948.163761,4923.714429 4954.221310,4923.557329 4953.161082,4895.118724 4946.741492,4895.138981 4946.526428,4887.320961 4946.540864,4885.323454 4958.514506,4884.845715 4958.617579,4887.184785 4961.407095,4887.116676 4962.822534,4946.005507 4955.071363,4946.219410"/>
    <poly id="1030568171" type="water" color="181,209,209" fill="1" layer="-4.00" shape="4929.629523,4910.101701 4918.950026,4910.353301 4918.753592,4910.656899 4917.437664,4910.717087 4916.932912,4909.906330 4917.399573,4908.853801 4918.816779,4908.791542 4919.151949,4909.417141 4929.593878,4909.259162 4929.858074,4908.665693 4931.275279,4908.603436 4931.792411,4909.569280 4931.212090,4910.468793 4929.896162,4910.528979 4929.629523,4910.101701"/>
    <poly id="1030568172" type="building" color="255,230,230" fill="1" layer="-1.00" shape="4903.899517,4920.269803 4903.797436,4913.925191 4910.380928,4913.812788 4910.430221,4916.674452 4910.483004,4920.157400 4903.899517,4920.269803"/>
    <poly id="1030568172#1" type="man_made" color="255,230,230" fill="1" layer="-1.00" shape="4903.899517,4920.269803 4903.797436,4913.925191 4910.380928,4913.812788 4910.430221,4916.674452 4910.483004,4920.157400 4903.899517,4920.269803"/>
    <poly id="1030568173" type="building" color="255,230,230" fill="1" layer="-1.00" shape="4936.638304,4919.079035 4936.587432,4916.139735 4936.527039,4912.734612 4943.110757,4912.633323 4943.221791,4918.966656 4936.638304,4919.079035"/>
    <poly id="1030568173#1" type="man_made" color="255,230,230" fill="1" layer="-1.00" shape="4936.638304,4919.079035 4936.587432,4916.139735 4936.527039,4912.734612 4943.110757,4912.633323 4943.221791,4918.966656 4936.638304,4919.079035"/>
    <poly id="1030570540" type="amenity" color="237,199,199" fill="1" layer="-1.00" shape="4923.273869,4948.844404 4925.051275,4948.830260 4925.584562,4947.432405 4924.908872,4946.369942 4924.144236,4946.363382 4923.305944,4946.358328 4922.632739,4947.670278 4923.273869,4948.844404"/>
    <poly id="1030570540#1" type="building" color="255,230,230" fill="1" layer="-1.00" shape="4923.273869,4948.844404 4925.051275,4948.830260 4925.584562,4947.432405 4924.908872,4946.369942 4924.144236,4946.363382 4923.305944,4946.358328 4922.632739,4947.670278 4923.273869,4948.844404"/>
    <poly id="1030570541" type="building" color="255,230,230" fill="1" layer="-1.00" shape="4912.538409,4980.597646 4912.627836,4985.422416 4916.448731,4985.344302 4916.359306,4980.519532 4914.020733,4980.567342 4912.538409,4980.597646"/>
    <poly id="1030570542" type="building" color="255,230,230" fill="1" layer="-1.00" shape="4934.325211,4979.852679 4934.395986,4984.666734 4938.180507,4984.611564 4938.127467,4979.763859 4936.368934,4979.799806 4934.325211,4979.852679"/>
    <poly id="1030589701" type="building" color="255,230,230" fill="1" layer="-1.00" shape="4920.264527,4991.324507 4920.180861,4987.231931 4916.451810,4987.297070 4914.103804,4987.333977 4914.187019,4991.404371 4920.264527,4991.324507"/>
    <poly id="1030589702" type="building" color="255,230,230" fill="1" layer="-1.00" shape="4938.254946,4990.956741 4938.199589,4986.896873 4934.424956,4986.985128 4932.058537,4987.022406 4932.150952,4991.092612 4938.254946,4990.956741"/>
    <poly id="1030597161" type="parking" color="184,184,179" fill="1" layer="-1.00" shape="4943.671256,4884.627606 4943.514132,4873.335473 4943.486072,4871.061443 4943.435117,4867.667224 4942.825492,4842.348376 4961.759821,4840.829626 4962.643635,4884.073394 4944.564116,4884.598261 4943.671256,4884.627606"/>
    <poly id="1030597165" type="landuse" color="194,194,130" fill="1" layer="-3.00" shape="4903.025420,4868.504380 4902.694184,4853.654108 4917.111832,4853.326074 4917.250048,4859.636660 4909.138820,4859.813575 4909.332051,4868.364352 4903.025420,4868.504380"/>
    <poly id="1030597166" type="landuse" color="194,194,130" fill="1" layer="-3.00" shape="4942.609338,4867.373425 4942.278165,4852.523154 4927.860517,4852.851149 4927.998500,4859.150643 4936.109501,4858.962654 4936.302707,4867.513431 4942.609338,4867.373425"/>
    <poly id="1039465852" type="landuse" color="194,194,130" fill="1" layer="-3.00" shape="7078.025068,5259.710211 7076.603070,5228.549594 7552.757866,5221.055608 7554.749070,5356.346463 7529.784073,5358.369979 7427.044067,5360.209518 7299.216511,5363.022725 7298.121320,5318.818360 7204.243997,5284.787271 7128.446394,5262.629982 7078.025068,5259.710211"/>
    <poly id="1039520219" type="residential" color="235,235,227" fill="1" layer="-3.00" shape="8901.348071,5004.207769 9057.025590,5001.092656 9070.082739,4983.888954 9059.945077,4766.679044 9044.195888,4757.984644 8900.125615,4762.309759 8901.348071,5004.207769"/>
    <poly id="1042936531" type="landuse" color="194,194,130" fill="1" layer="-3.00" shape="5626.586675,5321.972956 5624.728783,5247.947808 6166.020589,5241.187020 6281.344378,5237.535998 6326.391393,5234.746523 6404.187562,5245.417438 6520.622427,5254.784047 6285.616300,5259.229804 6285.764112,5268.780054 6271.200987,5268.709536 6272.188766,5284.700333 6244.399297,5284.166070 6229.681161,5331.798466 6181.595238,5326.428368 6178.178978,5385.869984 6146.269829,5386.551454 6145.621595,5357.816075 6052.230465,5359.269961 6052.532159,5317.921817 5626.586675,5321.972956"/>
    <poly id="1043635203" type="landuse" color="194,194,130" fill="1" layer="-3.00" shape="5617.787506,5243.595494 5616.342283,5220.124498 6096.492399,5216.791304 6219.771787,5220.722577 6314.262201,5226.626664 6313.170322,5233.639007 6193.113931,5239.183223 5617.787506,5243.595494"/>
    <poly id="1046109813" type="building" color="255,230,230" fill="1" layer="-1.00" shape="8161.408189,5184.537084 8160.609740,5131.062276 8205.045918,5130.402293 8215.238617,5130.241872 8215.094343,5120.769315 8302.594744,5119.466540 8302.528739,5115.262719 8322.371187,5114.964101 8340.270797,5114.693441 8340.330027,5119.019446 8415.013110,5117.897422 8430.822564,5117.657791 8430.998734,5129.648345 8459.349003,5129.223654 8459.697572,5152.561304 8439.017412,5152.876447 8439.431091,5180.373555 8161.408189,5184.537084"/>
    <poly id="1094363163" type="leisure" color="207,245,201" fill="1" layer="-2.00" shape="6934.783736,3540.746137 6964.556235,3539.789180 6964.057958,3524.254531 6934.285186,3525.200397 6934.783736,3540.746137"/>
    <poly id="1147854308" type="tourism" color="207,245,201" fill="1" layer="-2.00" shape="4596.698189,4398.913066 4605.270081,4399.170301 4605.698355,4392.193470 4596.702555,4392.377643 4596.698189,4398.913066"/>
    <poly id="1153971657" type="building" color="255,230,230" fill="1" layer="-1.00" shape="8110.453080,3887.013717 8112.514073,3841.969495 8177.043777,3844.356672 8175.470124,3888.913970 8110.453080,3887.013717"/>
    <poly id="142320594" type="leisure" color="207,245,201" fill="1" layer="-2.00" shape="8560.106645,2944.272666 8617.673808,2943.718295 8617.087563,2882.728016 8559.520025,2883.282375 8560.106645,2944.272666"/>
    <poly id="142323458" type="leisure" color="207,245,201" fill="1" layer="-2.00" shape="7948.373198,4267.992260 7946.031964,4211.131122 7873.524243,4207.663540 7877.964884,4270.873387 7948.373198,4267.992260"/>
    <poly id="142323458#1" type="sport" color="79,230,125" fill="1" layer="-2.00" shape="7948.373198,4267.992260 7946.031964,4211.131122 7873.524243,4207.663540 7877.964884,4270.873387 7948.373198,4267.992260"/>
    <poly id="142323485" type="leisure" color="207,245,201" fill="1" layer="-2.00" shape="7970.597535,4264.205531 8007.137026,4262.749494 8005.637391,4225.277262 7969.097754,4226.733298 7970.597535,4264.205531"/>
    <poly id="142323485#1" type="sport" color="79,230,125" fill="1" layer="-2.00" shape="7970.597535,4264.205531 8007.137026,4262.749494 8005.637391,4225.277262 7969.097754,4226.733298 7970.597535,4264.205531"/>
    <poly id="142323489" type="leisure" color="207,245,201" fill="1" layer="-2.00" shape="8031.773585,4242.870487 8051.408654,4242.242722 8052.977162,4291.397000 8033.342197,4292.024767 8031.773585,4242.870487"/>
    <poly id="142324641" type="leisure" color="207,245,201" fill="1" layer="-2.00" shape="6503.694657,4621.063435 6589.380412,4621.290732 6589.638513,4579.932595 6503.116099,4580.254816 6503.694657,4621.063435"/>
    <poly id="142324651" type="water" color="181,209,209" fill="1" layer="-4.00" shape="6136.550013,4194.689360 6143.408159,4190.389268 6181.563920,4221.325498 6209.650962,4217.304573 6228.853535,4213.963367 6235.051098,4202.531240 6256.452383,4185.886328 6260.195571,4174.248837 6284.699342,4189.740203 6321.383760,4195.852893 6340.232914,4222.310524 6337.982924,4258.971341 6327.477044,4276.892910 6314.274040,4283.551797 6298.931859,4282.387394 6293.309874,4273.159053 6295.100712,4264.268497 6288.075955,4258.996433 6271.828415,4261.789350 6268.302956,4260.551626 6255.899163,4256.209819 6237.731865,4261.993166 6187.967793,4267.696796 6173.785357,4251.973919 6162.810661,4246.793241 6150.453069,4246.544879 6141.318130,4234.436547 6143.446363,4217.672377 6137.754137,4204.994837 6136.550013,4194.689360"/>
    <poly id="142324653" type="leisure" color="207,245,201" fill="1" layer="-2.00" shape="6488.582123,4888.793655 6527.358657,4888.296018 6526.786994,4843.736968 6488.010275,4844.234600 6488.582123,4888.793655"/>
    <poly id="164553063" type="amenity" color="237,199,199" fill="1" layer="-1.00" shape="7565.187940,2078.575564 7564.978191,2058.097726 7603.714360,2057.317621 7603.341696,2078.617145 7565.187940,2078.575564"/>
    <poly id="164553063#1" type="building" color="255,230,230" fill="1" layer="-1.00" shape="7565.187940,2078.575564 7564.978191,2058.097726 7603.714360,2057.317621 7603.341696,2078.617145 7565.187940,2078.575564"/>
    <poly id="164792879" type="building" color="255,230,230" fill="1" layer="-1.00" shape="7021.572202,4200.779848 7021.355381,4184.584867 7120.407033,4182.361304 7120.251895,4196.111696 7021.572202,4200.779848"/>
    <poly id="164792880" type="building" color="255,230,230" fill="1" layer="-1.00" shape="7067.179041,4354.894838 7178.814428,4351.907080 7178.796022,4329.561226 7067.173510,4329.552934 7067.179041,4354.894838"/>
    <poly id="164792881" type="building" color="255,230,230" fill="1" layer="-1.00" shape="7039.690237,4265.910098 7038.938835,4240.583268 7059.122468,4237.922962 7099.854263,4237.421636 7122.848675,4240.296782 7123.129411,4259.663761 7039.690237,4265.910098"/>
    <poly id="164792886" type="leisure" color="207,245,201" fill="1" layer="-2.00" shape="7077.186397,4300.391452 7075.987528,4280.266339 7125.604997,4277.333177 7126.803758,4297.458292 7077.186397,4300.391452"/>
    <poly id="164792887" type="building" color="255,230,230" fill="1" layer="-1.00" shape="7130.083974,4315.288981 7130.246379,4304.634069 7137.905226,4305.300406 7138.495564,4297.133327 7170.335140,4295.114330 7170.634368,4302.176085 7179.063332,4301.750642 7179.260297,4314.695048 7130.083974,4315.288981"/>
    <poly id="164792888" type="building" color="255,230,230" fill="1" layer="-1.00" shape="7130.716687,4225.780319 7130.106706,4212.001002 7224.195352,4209.434964 7223.713518,4223.436042 7130.716687,4225.780319"/>
    <poly id="164792889" type="building" color="255,230,230" fill="1" layer="-1.00" shape="7069.529567,4225.984750 7069.125480,4211.002962 7123.864253,4209.863643 7123.936595,4223.931208 7069.529567,4225.984750"/>
    <poly id="164792892" type="building" color="255,230,230" fill="1" layer="-1.00" shape="7132.556955,4281.764054 7132.283397,4267.767126 7223.859033,4263.487642 7223.865607,4278.410877 7132.556955,4281.764054"/>
    <poly id="164792894" type="building" color="255,230,230" fill="1" layer="-1.00" shape="7149.102752,4253.147514 7147.678336,4237.809095 7222.898498,4235.990346 7223.104802,4249.400567 7149.102752,4253.147514"/>
    <poly id="164792896" type="building" color="255,230,230" fill="1" layer="-1.00" shape="7123.942373,4195.948375 7219.658551,4191.862632 7220.157354,4179.614291 7122.900253,4183.120901 7123.942373,4195.948375"/>
    <poly id="216639730" type="amenity" color="237,199,199" fill="1" layer="-1.00" shape="8161.224668,2221.813390 8161.080969,2207.314674 8103.758013,2207.877752 8103.901801,2222.376470 8161.224668,2221.813390"/>
    <poly id="216639730#1" type="building" color="255,230,230" fill="1" layer="-1.00" shape="8161.224668,2221.813390 8161.080969,2207.314674 8103.758013,2207.877752 8103.901801,2222.376470 8161.224668,2221.813390"/>
    <poly id="233663695" type="building" color="255,230,230" fill="1" layer="-1.00" shape="6899.850008,3625.855611 6936.560071,3624.957973 6937.828477,3670.834207 6900.764882,3671.095466 6899.850008,3625.855611"/>
    <poly id="245153369" type="tourism" color="207,245,201" fill="1" layer="-2.00" shape="4752.187565,4360.668716 4749.113436,4334.224145 4756.206805,4329.296822 4755.431668,4304.913392 4755.317018,4301.109937 4754.878931,4287.349224 4754.295074,4269.164338 4754.021949,4260.315614 4751.490850,4180.711885 4742.690389,3903.146240 4613.093301,3903.401357 4618.487309,3638.094322 4646.985217,3507.315079 4669.076905,3296.612184 4677.304114,3288.077777 4686.875257,3286.694750 4702.523498,3288.760213 4715.774013,3299.263026 4715.227856,3354.985273 4727.596071,3370.099727 4736.252050,3376.225001 4761.855793,3394.364212 4768.820302,3400.668346 4771.194968,3402.816719 4771.335070,3415.074504 4772.143045,3487.024119 4778.031061,4012.336635 4775.128346,4357.725122 4752.187565,4360.668716"/>
    <poly id="245153371" type="tourism" color="207,245,201" fill="1" layer="-2.00" shape="6362.294066,4353.988290 6360.671264,4334.837078 6434.837829,4323.779674 6448.329302,4219.585673 6352.342952,4220.345059 6337.442649,4195.560386 6333.600116,4183.688479 6288.952520,4171.457263 6130.819720,4184.220605 6126.240766,4195.065159 6088.264884,4196.579892 6077.931169,4197.111579 6070.594884,4197.371568 6059.119251,4198.825211 6066.577242,4211.810799 6072.774648,4221.238145 6070.257633,4222.032679 6050.639276,4229.843065 6037.057862,4235.100906 6039.692199,4264.561488 6049.846885,4274.263470 6045.538167,4357.789402 6362.294066,4353.988290"/>
    <poly id="245153373" type="tourism" color="207,245,201" fill="1" layer="-2.00" shape="5160.835524,3419.678174 5161.130615,3430.978550 5164.134811,3547.043609 5164.357241,3556.137449 5184.982267,3554.729062 5188.477074,3574.308026 5223.837978,3583.561483 5229.817649,3598.962208 5247.798795,3598.462251 5247.768667,3586.146774 5264.228199,3585.566933 5261.674265,3580.492869 5261.151631,3569.774107 5317.653795,3568.155782 5320.738141,3568.070698 5317.055006,3419.065711 5160.835524,3419.678174"/>
    <poly id="245153374" type="tourism" color="207,245,201" fill="1" layer="-2.00" shape="4886.370470,2556.631240 4884.901754,2493.760367 4885.864283,2486.306660 4887.888582,2482.570474 4916.734760,2455.928778 5038.773803,2453.203774 5040.376861,2553.397372 4886.370470,2556.631240"/>
    <poly id="245283771" type="tourism" color="207,245,201" fill="1" layer="-2.00" shape="7473.759678,3628.336221 7474.459635,3642.036035 7434.152599,3644.080361 7404.464355,3674.314949 7402.293300,3631.985344 7473.759678,3628.336221"/>
    <poly id="245283775" type="tourism" color="207,245,201" fill="1" layer="-2.00" shape="7712.005640,4558.556376 7711.553039,4536.086194 7725.289523,4530.738920 7723.672600,4468.293249 7814.321318,4466.578936 7813.577168,4429.612951 7841.996723,4429.773188 7840.700318,4401.517115 7817.410838,4402.707104 7816.987761,4381.689842 8068.232819,4378.089171 8066.443965,4397.697381 8078.813451,4396.727521 8083.607228,4635.192928 8008.620220,4637.433000 7995.975622,4660.887765 7904.269978,4664.907360 7904.780385,4690.272261 7823.247495,4692.645569 7821.048589,4655.708859 7779.527901,4655.812521 7764.818598,4685.112110 7748.783641,4684.713826 7734.548628,4629.168422 7734.596621,4558.833665 7712.005640,4558.556376"/>
    <poly id="246438223" type="residential" color="235,235,227" fill="1" layer="-3.00" shape="6205.495436,4809.312822 6214.399540,4984.729853 6255.982305,4976.385027 6275.783740,4959.062392 6325.400853,4958.099759 6325.355960,4804.738405 6205.495436,4809.312822"/>
    <poly id="246438229" type="commercial" color="209,209,204" fill="1" layer="-3.00" shape="7370.203533,3762.360261 7656.403073,3753.107071 7656.463284,3763.413484 7658.180862,4074.582708 7600.011365,4076.464806 7602.662737,4154.556345 7602.706713,4196.507205 7527.061281,4268.620924 7461.343749,4225.486669 7456.891173,4216.178642 7449.247988,4185.232318 7413.164533,4186.026685 7377.836103,4186.805958 7375.701217,4083.728136 7370.539063,3771.229828 7370.203533,3762.360261"/>
    <poly id="246438230" type="building" color="255,230,230" fill="1" layer="-1.00" shape="6647.446140,3754.844250 6646.636038,3738.039915 6726.101080,3733.191175 6723.805925,3658.942381 6745.766146,3657.976408 6749.828979,3742.652445 6647.446140,3754.844250"/>
    <poly id="246573566" type="parking" color="184,184,179" fill="1" layer="-1.00" shape="6214.355837,2915.406859 6213.789833,2887.058266 6231.303069,2886.591970 6244.119790,2888.040647 6285.968046,2892.772771 6286.148688,2901.678783 6279.714282,2914.657870 6214.355837,2915.406859"/>
    <poly id="246573697" type="tourism" color="207,245,201" fill="1" layer="-2.00" shape="4709.840714,3209.609781 4697.034802,3206.886995 4687.244828,3198.477056 4687.742119,3175.498964 4692.509057,3126.602952 4690.590439,2985.960949 4679.098848,2941.214402 4679.778577,2786.172662 4672.826197,2587.248610 4671.130501,2363.340761 4675.478668,2341.238165 4682.034641,2332.482811 4699.365294,2329.787237 4779.960031,2326.863549 4876.263056,2326.615436 4924.064668,2321.766632 5176.364596,2318.125932 5216.621508,2320.555874 5390.341121,2316.526571 5397.383996,2323.950238 5399.945516,2391.791685 5357.031475,2392.777078 5356.750762,2380.810702 5334.851656,2381.312482 5335.084534,2391.382494 5237.007545,2393.592743 5236.766130,2382.657446 5213.595651,2383.163244 5213.845009,2394.486724 5099.668638,2396.971280 5099.412578,2385.326159 5080.791143,2385.717266 5081.017645,2396.364390 4970.357678,2398.701090 4970.151659,2389.063240 4949.310725,2389.499932 4949.522278,2399.858882 4836.543093,2403.675860 4835.903576,2399.883141 4834.136025,2394.992819 4830.109892,2391.391357 4825.341455,2390.689919 4820.056340,2392.207064 4816.294306,2395.668101 4815.405671,2400.424078 4815.917624,2404.285976 4818.273209,2407.744043 4822.028244,2410.252576 4826.246594,2411.087305 4828.530553,2411.040631 4831.228597,2512.410279 4816.676593,2512.652192 4817.100029,2538.329833 4830.491611,2538.111632 4832.002082,2630.507041 4817.827841,2630.741245 4818.219335,2654.855064 4831.251589,2654.644197 4832.861548,2755.059703 4819.028009,2755.275859 4819.401926,2778.979504 4833.456449,2778.758831 4834.937810,2873.329604 4822.062188,2873.526188 4822.444137,2898.072939 4837.889272,2897.834933 4839.458906,2999.427431 4825.266580,2999.650933 4825.617627,3022.234399 4840.390307,3022.010129 4841.939748,3122.160628 4826.706785,3122.394315 4827.019677,3142.659583 4841.073655,3142.438897 4841.448264,3166.175827 4787.753693,3168.260960 4757.426566,3175.960041 4746.350551,3181.246129 4728.629610,3208.925920 4709.840714,3209.609781"/>
    <poly id="246573712" type="parking" color="184,184,179" fill="1" layer="-1.00" shape="5492.458937,3393.355213 5491.779120,3339.633288 5498.261833,3329.093601 5496.550202,3286.221961 5509.515942,3285.957857 5511.678586,3392.131539 5492.458937,3393.355213"/>
    <poly id="254488435" type="building" color="255,230,230" fill="1" layer="-1.00" shape="6855.096318,3234.980303 6854.808028,3197.039697 6817.089176,3197.336609 6817.377618,3235.277221 6855.096318,3234.980303"/>
    <poly id="254488435#1" type="historic" color="128,255,128" fill="1" layer="-1.00" shape="6855.096318,3234.980303 6854.808028,3197.039697 6817.089176,3197.336609 6817.377618,3235.277221 6855.096318,3234.980303"/>
    <poly id="254488435#2" type="tourism" color="207,245,201" fill="1" layer="-2.00" shape="6855.096318,3234.980303 6854.808028,3197.039697 6817.089176,3197.336609 6817.377618,3235.277221 6855.096318,3234.980303"/>
    <poly id="254488436" type="building" color="255,230,230" fill="1" layer="-1.00" shape="6577.937161,3302.535896 6628.269349,3300.972886 6680.505687,3299.271740 6724.582339,3298.146560 6722.703175,3235.794820 6669.016022,3237.292073 6667.496172,3233.661339 6666.663590,3231.669916 6656.213597,3231.970244 6641.758749,3232.396052 6633.859095,3232.622577 6617.811380,3233.091771 6610.777337,3233.300786 6609.037356,3233.358213 6576.352572,3234.308652 6576.407607,3236.571013 6576.610453,3245.221372 6576.773090,3252.341370 6576.982676,3261.324457 6577.160365,3269.187547 6577.937161,3302.535896"/>
    <poly id="254488436#1" type="shop" color="237,199,255" fill="1" layer="-1.00" shape="6577.937161,3302.535896 6628.269349,3300.972886 6680.505687,3299.271740 6724.582339,3298.146560 6722.703175,3235.794820 6669.016022,3237.292073 6667.496172,3233.661339 6666.663590,3231.669916 6656.213597,3231.970244 6641.758749,3232.396052 6633.859095,3232.622577 6617.811380,3233.091771 6610.777337,3233.300786 6609.037356,3233.358213 6576.352572,3234.308652 6576.407607,3236.571013 6576.610453,3245.221372 6576.773090,3252.341370 6576.982676,3261.324457 6577.160365,3269.187547 6577.937161,3302.535896"/>
    <poly id="254488437" type="building" color="255,230,230" fill="1" layer="-1.00" shape="6549.574944,3323.581559 6549.484623,3319.123008 6552.928619,3319.053241 6552.385806,3292.257572 6549.107554,3292.323982 6548.989599,3286.501247 6497.799118,3287.538392 6498.132630,3303.997323 6483.813316,3304.287490 6483.984580,3312.738775 6497.944523,3312.444793 6498.191287,3324.622628 6549.574944,3323.581559"/>
    <poly id="254488437#1" type="historic" color="128,255,128" fill="1" layer="-1.00" shape="6549.574944,3323.581559 6549.484623,3319.123008 6552.928619,3319.053241 6552.385806,3292.257572 6549.107554,3292.323982 6548.989599,3286.501247 6497.799118,3287.538392 6498.132630,3303.997323 6483.813316,3304.287490 6483.984580,3312.738775 6497.944523,3312.444793 6498.191287,3324.622628 6549.574944,3323.581559"/>
    <poly id="254488441" type="commercial" color="209,209,204" fill="1" layer="-3.00" shape="7138.954830,3190.620457 7132.837354,2832.927642 7254.307673,2823.352402 7268.960336,2979.257950 7287.232667,3003.643120 7291.371540,3044.856738 7294.899430,3190.024532 7138.954830,3190.620457"/>
    <poly id="254607538" type="residential" color="235,235,227" fill="1" layer="-3.00" shape="7122.891600,1725.595498 7426.152858,1719.978106 7432.563057,1962.149858 7128.894676,1972.313783 7122.891600,1725.595498"/>
    <poly id="254607539" type="residential" color="235,235,227" fill="1" layer="-3.00" shape="7075.805220,2146.573933 7107.662768,2204.403483 7127.201007,2215.648098 7153.899824,2229.266862 7190.666035,2238.643782 7224.289869,2242.514357 7270.585176,2245.630119 7439.738369,2242.729594 7432.632663,1966.974947 7075.805220,2146.573933"/>
    <poly id="254607540" type="residential" color="235,235,227" fill="1" layer="-3.00" shape="6122.529550,2266.675188 6292.079490,2260.572577 6438.714473,2261.683371 6433.485207,2142.291193 6430.107164,1701.348457 6428.826649,1643.145458 6106.403222,1646.864840 6118.099052,2083.334529 6122.529550,2266.675188"/>
    <poly id="256711563" type="landuse" color="194,194,130" fill="1" layer="-3.00" shape="6869.817166,2492.763670 6873.309907,2488.254880 6891.091276,2471.851402 6891.853206,2489.488834 6889.232911,2492.948103 6869.817166,2492.763670"/>
    <poly id="256711574" type="tourism" color="207,245,201" fill="1" layer="-2.00" shape="7322.637356,2704.085113 7331.892741,2703.909521 7404.821288,2702.516485 7403.942448,2656.643637 7460.193106,2655.565144 7458.863341,2585.935068 7395.520935,2587.145433 7393.971130,2506.624100 7393.771928,2496.287207 7392.671356,2438.502387 7392.410887,2425.126592 7392.232262,2415.810062 7392.090533,2408.323528 7391.955736,2401.180812 7330.177660,2402.359999 7332.193974,2507.814396 7333.756614,2588.945740 7320.006788,2589.200884 7283.795426,2589.898077 7285.062087,2655.879096 7285.158939,2661.136365 7321.802856,2660.430433 7322.637356,2704.085113"/>
    <poly id="256711580" type="amenity" color="237,199,199" fill="1" layer="-1.00" shape="6535.242932,3252.761009 6534.939835,3239.164098 6550.201442,3238.544254 6565.621620,3238.475996 6565.924672,3252.072905 6535.242932,3252.761009"/>
    <poly id="256711580#1" type="building" color="255,230,230" fill="1" layer="-1.00" shape="6535.242932,3252.761009 6534.939835,3239.164098 6550.201442,3238.544254 6565.621620,3238.475996 6565.924672,3252.072905 6535.242932,3252.761009"/>
    <poly id="257224676" type="building" color="255,230,230" fill="1" layer="-1.00" shape="4896.134805,5037.853599 4890.200010,5032.748903 4881.923056,4394.986234 4881.721438,4386.025095 4881.072193,4329.483995 4885.728668,4328.811832 4884.707724,4278.869134 4880.536534,4274.893407 4858.948377,3327.359015 4858.999196,3307.308222 4858.526657,3288.244540 4877.753860,3287.829400 4876.200281,3214.963057 4863.897432,3215.214483 4863.657988,3203.047503 4857.828634,3203.155544 4857.638711,3191.608905 4857.477208,3181.903556 4845.054264,2433.337978 4848.296993,2433.771019 4852.241682,2434.289578 4856.962839,2429.521870 4861.235972,2424.019915 4861.855983,2420.545424 4862.402626,2417.538447 5410.679053,2406.263504 5428.885313,2405.848220 5429.048159,2413.389872 5520.072426,2411.425081 5519.953641,2405.591248 5524.551433,2405.608586 5813.353472,2400.276419 6091.983731,2394.948830 6103.747380,2394.865368 6744.375727,2382.770707 6757.980562,2382.617531 6795.261786,2381.930006 6795.457802,2392.988194 6820.886423,2392.540498 6852.614750,2391.987685 6852.516096,2386.652776 6862.720613,2386.468645 6862.623742,2381.677376 6879.734906,2381.331436 6889.499167,2381.244998 7420.493380,2370.326161 7420.580617,2374.196694 7445.767530,2373.644615 7445.684550,2369.984809 7457.941196,2369.682297 7466.072684,2369.496223 7495.734945,2368.831895 7495.821928,2372.691336 7818.905755,2360.161826 7846.095124,2359.770260 8244.569911,2366.975890 8244.463773,2371.327390 8254.446684,2371.581940 8254.559949,2367.585349 8312.403406,2369.597899 8321.721677,2369.788188 8656.940737,2379.478841 9011.373918,2389.962336 9024.034445,2395.123767 9031.285709,2402.068712 9037.799449,2413.599655 9041.906414,2431.014816 9053.342704,3087.071856 9053.562373,3099.904706 9053.960273,3122.575510 9041.813645,3122.796131 9042.455789,3158.143964 9043.036523,3190.419633 9055.330400,3190.196065 9055.883740,3219.720650 9056.129372,3232.930224 9064.430001,3676.720057 9064.761210,3689.140162 9044.462509,3689.801188 9045.230727,3713.019374 9064.535130,3712.389320 9065.458112,3731.832011 9077.156148,4337.190573 9077.039651,4351.172984 9078.373532,4422.489115 9081.451382,4429.927998 9099.140668,4974.620204 9091.132742,4974.880201 9092.109732,5004.851295 9078.558532,5017.615626 9043.434720,5018.318151 9037.645775,5021.762547 8706.897170,5024.013100 8552.963188,5024.968781 8324.794458,5026.485325 8122.503459,5027.831160 6956.688815,5035.738399 6934.300035,5035.847306 6934.245110,5030.855453 6934.099148,5018.631192 6894.862000,5019.092118 6851.278534,5019.607879 6837.795840,5024.241268 6837.837333,5030.387326 6827.389131,5030.676460 5591.699847,5035.907308 5582.791412,5036.277419 4896.134805,5037.853599"/>