<?xml version="1.0" encoding="UTF-8"?>

<!-- generated on 05/12/23 15:52:57 by Eclipse SUMO duarouter Version 1.8.0
<configuration xmlns:xsi="http://www.w3.org/2001/XMLSchema-instance" xsi:noNamespaceSchemaLocation="http://sumo.dlr.de/xsd/duarouterConfiguration.xsd">

    <input>
        <net-file value="xian.net.xml"/>
        <route-files value="trips.trips.xml"/>
    </input>

    <output>
        <output-file value="xian.rou.xml"/>
        <alternatives-output value="xian.rou.alt.xml"/>
    </output>

    <time>
        <begin value="0"/>
        <end value="2000"/>
    </time>

    <report>
        <no-warnings value="true"/>
        <ignore-errors value="true"/>
        <no-step-log value="true"/>
    </report>

</configuration>
-->

<routes xmlns:xsi="http://www.w3.org/2001/XMLSchema-instance" xsi:noNamespaceSchemaLocation="http://sumo.dlr.de/xsd/routes_file.xsd">
    <vehicle id="0" depart="0.00">
        <route edges="242758174#4 -59868464 59868434#5 -516364636#6 -516364636#2 -516364636#1 -516364636#0 266957160#8 266957160#9 266957160#10 266957160#11 142321461#2"/>
    </vehicle>
    <vehicle id="1" depart="0.00">
        <route edges="266577945#1 266577945#2 258742300#0 258742300#1 783999519#0 783999519#2 783999519#3 -59868404#4 -59868404#3 -516364636#6 -516364636#2 -516364636#1 -516364636#0 59140333#1 59140333#2 59140333#3 -246438216#2"/>
    </vehicle>
    <vehicle id="2" depart="0.00">
        <route edges="28296475#1 48795850#1 48795850#2 48795850#3 48795850#4 48795850#5 48795850#7 48795850#8 48795850#9 447556685 447556686 277672360 28258007#0 28258007#4 -245402047#1"/>
    </vehicle>
    <vehicle id="3" depart="0.00">
        <route edges="335518664#3 295967308#0 295967308#0-AddedOffRampEdge 295967308#1 295967308#2 335527353#0 335527353#1 447556677#0 447556677#1 447556677#2 334971109#0 334971109#1 334971110#0 334971108#0 334971108#1 40541061#0 40541061#2 257224675 266577945#1 266577945#2 266577945#3 266577945#4 266577945#5 266577945#6 266577945#7 335518637#0 335518637#1 290629737"/>
    </vehicle>
    <vehicle id="4" depart="0.00">
        <route edges="334281568#3 334281570 333403953 334281569 334281571 59140300#0 266957160#0 266957160#1 266957160#2 266957160#8 266957160#9 266957160#10 266957160#11 266957160#15 337335331#0 337335331#2 337335331#4 254489534 334971116 333403966 333403963 334971113 334971114 969449155#0 969449155#1 457307901#1 457307901#2 28461934#0 28461934#1 456114495 550169262#0 334283252#4 550169266#0-AddedOnRampEdge"/>
    </vehicle>
    <vehicle id="5" depart="0.00">
        <route edges="550169263 550169266#0-AddedOnRampEdge 550169266#0 287208893#0 287208893#1 447556677#2 334971109#0 334971109#1 28258941#0 28258941#1 28258941#2 28258941#3 334971114 333403965 333403964 28358444 463727055#1 39820414#0 39820414#1 -39820421#3 39820421#3"/>
    </vehicle>
    <vehicle id="6" depart="1.00">
        <route edges="763969668#1-AddedOnRampEdge 763969668#1 763969643#0 763969643#1-AddedOnRampEdge 763969643#1 335525202 263770042 763969648#0 212736874#1 447556632#2 258248751#1 258248751#3 258248751#4"/>
    </vehicle>
    <vehicle id="7" depart="1.00">
        <route edges="-337129679#1 142324647#2 59140337#0 59140337#1 59140337#3 59140337#6 59140337#8 334797270#0 334797270#1 457308489#0 457308489#1 457308489#2 -245283774#3 -245283774#2 -245283774#1 59140288#0"/>
    </vehicle>
    <vehicle id="8" depart="2.00">
        <route edges="142321460#4 142321458#2 142321458#4 142321458#5 337335331#0 337335331#2 337335331#4 254489534 334971116 28296475#0 28296475#1 48795850#1 48795850#2 -246573547#5 -246573547#4 -246573547#2 246573547#0"/>
    </vehicle>
    <vehicle id="9" depart="2.00">
        <route edges="142321461#6 142321461#7 463727052#1 463727052#2 463727052#4 463727052#5 28358446 334281568#0 334281568#2 334281568#3 334281570 333403953 263739438#0 263739438#1-AddedOnRampEdge 263739438#1 263739438#2 768088169#1 768088169#2 768088169#3 768088180 550169273#0 550169273#3 259323323#0 28461931#1 382975415#0 -382975415#4 -382975421 382975417#1 -382975417#1"/>
    </vehicle>
    <vehicle id="10" depart="2.00">
        <route edges="335513835 -245402049#0 573113635 287208894#3 287208890#1-AddedOnRampEdge 287208890#1 290629749#0 290629749#2 290629749#3 258081766 334283251 266795179#1 259866070"/>
    </vehicle>
    <vehicle id="11" depart="2.00">
        <route edges="235000070#1 457983490#0 457983490#1 763969632#2 763969668#0 763969668#1-AddedOnRampEdge 763969668#1 763969643#0 763969643#1-AddedOnRampEdge"/>
    </vehicle>
    <vehicle id="12" depart="3.00">
        <route edges="447556686 277672360 28258007#0 258742307#5 258742298 447556687#0 277672363#1 277672363#2 277672363#3 277672363#5 277672363#6 277672363#7 257224673#7 257224673#8 257224673#9 257224673#10 257224673#11 333403963 334971113 334971114 333403965 333403964 28358444 463727055#1 463727055#2 254489533#0 254489533#2 254489533#3 142321460#0 142321460#1 142321460#3 142321460#4 334797268#0 142321459#1 457983494#1 -59140341#3 -59140341#2 -59140341#1"/>
    </vehicle>
    <vehicle id="13" depart="4.00">
        <route edges="-246438218#0 246438218#0 246438218#1 246438218#2 246438218#3 334971121#1 254607359 142324650 254607358#0 254607358#1 337335331#0 337335331#2 337335331#4 254489534 334971116 28296475#0 28296475#1 257224673#7 257224673#8 257224673#9 257224673#10"/>
    </vehicle>
    <vehicle id="14" depart="4.00">
        <route edges="142320581#3 447556655 263770042 763969648#0 763969648#1 763969658 763969653-AddedOnRampEdge 763969653"/>
    </vehicle>
    <vehicle id="15" depart="4.00">
        <route edges="181355868#0 181355868#1 181355868#2 28461934#0 28461934#1 -59140336#7 -59140336#5 334971109#0 334971109#1 334971110#0 334971108#0 334971108#1 334971108#2 295967306"/>
    </vehicle>
    <vehicle id="16" depart="4.00">
        <route edges="333418725 334283253#0 334283253#1 334283253#2 290629750 334283251 266795179#1 266795179#2 266795179#3 266795179#4 266795179#5 266795179#6 266795179#7 266795179#8 266795179#9 266795179#10 266795179#11 463727056#0 463727056#1 59140337#0 59140337#1 59140337#3 59140337#6 59140337#8 334797270#0 334797270#1 457308489#0 457308489#1 59140355#0 59140355#1 59140355#2 59140355#3"/>
    </vehicle>
    <vehicle id="18" depart="5.00">
        <route edges="-246573560#1 257224674#1 257224674#2 246573549#0 246573549#2 246573568#0 277672363#5 277672363#6 277672363#7 -259323729 -40541065#2"/>
    </vehicle>
    <vehicle id="19" depart="5.00">
        <route edges="263309131#3 263309131#4 969449155#8"/>
    </vehicle>
    <vehicle id="20" depart="6.00">
        <route edges="447556677#0 287208894#0 287208894#1 287208894#1-AddedOffRampEdge 287208894#2 287208894#3 287208890#1-AddedOnRampEdge 287208890#1 290629749#0 290629749#2 290629749#3 334283250#1 334283250#2 763969666#0 763969666#1 763969666#2 263739288#0 267404280 333404264#0 333404264#1 568082463 337335334#0 337335334#1"/>
    </vehicle>
    <vehicle id="21" depart="6.00">
        <route edges="335518636#0 335518636#0-AddedOffRampEdge 290629741#0 290629741#0-AddedOffRampEdge 290629741#2 290629741#3 295967307#2 335518638 266577945#1 266577945#2 258742300#0 258742300#1 783999519#0 783999519#2 783999519#3 -59868404#4 -59868404#3 -516364636#6 -516364636#2 -516364636#1 -516364636#0 266957160#8 266957160#9 266957160#10 266957160#11 59140287#1 -40541074#5"/>
    </vehicle>
    <vehicle id="22" depart="6.00">
        <route edges="28276817#0-AddedOffRampEdge 28276817#1 28276817#2 28358459#0 28358459#1-AddedOnRampEdge 28358459#1 457984365#0-AddedOnRampEdge 457984365#0 457984365#1 457984365#2 768088169#0 768088169#1 768088169#2 768088169#3 333403955 447554164 333403957 333403958#0 -40541062#4 -40541062#3 -40541062#2 -59868408#4 -59868408#2"/>
    </vehicle>
    <vehicle id="23" depart="7.00">
        <route edges="457983497#1 768088177#0-AddedOnRampEdge 768088177#0 768088177#0-AddedOffRampEdge 263776787#0 263776787#1-AddedOnRampEdge 263776787#1 266957524 335523978#0 447556683#1 447556683#2 447556682 334971121#1 254607359 142324650 254607358#0 254607358#1 337335331#0 337335331#2 337335331#4 254489534 334971116 333403966 333403963 28258942#0 28258942#2 28258942#3 28258942#4 28258942#6 334971108#0 334971108#1 334971108#2 335527350 335527353#0 335527353#1 447556677#0 287208894#0 287208894#1 287208894#1-AddedOffRampEdge 287208894#2 287208894#3 287208890#1-AddedOnRampEdge"/>
    </vehicle>
    <vehicle id="24" depart="7.00">
        <route edges="257224673#1 257224673#2 257224673#3 257224673#5 48795850#1 48795850#2 48795850#3 48795850#4 48795850#5 48795850#7 48795850#8 48795850#9 447556685 447556686 277672360 28258007#0 335527357#8 335518664#1 335518664#3 295967308#0 295967308#0-AddedOffRampEdge 295967308#1 295967308#2 335527353#0 335527353#1 447556677#0 447556677#1 447556677#2 334971109#0 334971109#1 28258941#0 28258941#1 277666483#0 -245280130"/>
    </vehicle>
    <vehicle id="25" depart="8.00">
        <route edges="59140336#15 59140336#16 59140336#17 258081755#1 334281912#1 266581134 763969636#0 333404259#0 333404259#1 333404259#2 337335334#0 337335334#1 37587463 335525201#0-AddedOnRampEdge 335525201#0 335525201#0-AddedOffRampEdge 457983475 457983475-AddedOffRampEdge 264110609#0 235000070#1 457983490#0 457983490#1 457983490#2 457983491 763969664#1-AddedOnRampEdge 763969664#1"/>
    </vehicle>
    <vehicle id="26" depart="8.00">
        <route edges="28258942#4 28258942#6 334971108#0 -263309130"/>
    </vehicle>
    <vehicle id="27" depart="8.00">
        <route edges="277672363#3 -246573568#0 48795850#5 48795850#7 -246573560#1 -246573559 266577945#2 266577945#3 266577945#4 266577945#5 266577945#6 266577945#7 335518637#0 290629741#3"/>
    </vehicle>
    <vehicle id="28" depart="8.00">
        <route edges="59140317#0 258248017#2 334797271#1 334797272 457307898#1 334797274#0 334797274#1 40541063#1 40541063#3 40541063#4 40541063#5 40541063#6 337129682#0 337129682#1 259866067#1 259866067#2 259866067#3 259866067#4 259866067#5 259866067#6 259866067#7 259866067#8 259866067#9 259866067#10 266795179#3"/>
    </vehicle>
    <vehicle id="29" depart="8.00">
        <route edges="287208890#1 290629749#0 456114496 -28461934#2 -28461934#0 258081769#0 258081769#1 28484384#8 28484384#9 333403964 28358444 463727055#1 463727055#2 254489533#0 254489533#2 254489533#3 337335333#0 337335333#1 -277555004#14 -277555004#13 -277555004#12 -277555004#10 -59868471#1 -59868471#0 -246438218#1 449218910#0"/>
    </vehicle>
    <vehicle id="30" depart="8.00">
        <route edges="246573568#4 246573568#5 246573569#0 -59868466#2 -59868466#1 -59868466#0 257224673#10 257224673#11 333403963 334971113 334971114 969449155#0 969449155#1 969449155#3 969449155#5 969449155#6 969449155#8"/>
    </vehicle>
    <vehicle id="31" depart="9.00">
        <route edges="142321459#5 28358447#0 28358447#1 28358447#2 28358447#3 457983494#1 -59140341#3 -59140341#2 -59140341#1 59128881#1 258248755"/>
    </vehicle>
    <vehicle id="32" depart="9.00">
        <route edges="142321459#3 142321459#4 142321459#5 447556655 263770046 335525201#0-AddedOnRampEdge 335525201#0 335525201#0-AddedOffRampEdge 457983475 457983475-AddedOffRampEdge 264110609#0 235000070#1 264110607 -267404269#0"/>
    </vehicle>
    <vehicle id="33" depart="9.00">
        <route edges="59868410#1 59868467#0 266795179#10 266795179#11 463727056#0 463727056#1 463727058#0 59140301#4"/>
    </vehicle>
    <vehicle id="34" depart="9.00">
        <route edges="142324643#2 142324643#4 337129683 258081754 337129679#1 337129679#2"/>
    </vehicle>
    <vehicle id="35" depart="9.00">
        <route edges="-516364636#2 -516364636#1 -516364636#0 59140333#1 59140333#2 59140333#3 59140333#4 59140333#5 463727050-AddedOnRampEdge 463727050 267161909 768088159 768088176 334971122#1-AddedOnRampEdge 334971122#1 334971122#1-AddedOffRampEdge 334971123 47848569 460338573-AddedOnRampEdge 460338573 267404274 264110604 763969668#1-AddedOnRampEdge 763969668#1 763969643#0 763969643#1-AddedOnRampEdge 763969643#1"/>
    </vehicle>
    <vehicle id="36" depart="10.00">
        <route edges="-337129679#1 142324647#2 59140337#0 59140337#1 59140337#3 142321458#0 142321458#2 142321458#4 142321458#5 142321461#1 266957160#15"/>
    </vehicle>
    <vehicle id="37" depart="10.00">
        <route edges="263770802 335518635#0 447554166 333403954 263739440#0 263739440#0-AddedOffRampEdge 263739440#1 334281571 59140300#0 266957160#0 266957160#1 266957160#2 266957160#8 266957160#9 266957160#10 266957160#11 266957160#15 142321460#0 142321460#1 142321460#3 142321460#4 334797268#0 142321459#1 142321459#3 142321459#4 59128839#0 -59128864#1 258248759"/>
    </vehicle>
    <vehicle id="39" depart="11.00">
        <route edges="181357564#0 266957517 447556683#1 447556683#2 447556682 334971121#1 254607359 142324650 254607358#0 254607358#1 337335331#0 337335331#2 337335331#4 254489534 334971116 333403966 333403963 28258942#0 28258942#2 28258942#3 -246573569#5 -246573569#1 -59868466#2 59868466#2"/>
    </vehicle>
    <vehicle id="40" depart="11.00">
        <route edges="972635870#1 266577945#4 266577945#5 266577945#6 266577945#7 335518637#0 290629741#3 290629741#4 335527357#0-AddedOnRampEdge 335527357#0 335527357#3 335527357#8 335518664#1 335518664#3 295967308#0 295967308#0-AddedOffRampEdge 295967308#1 295967308#2 335527353#0 335527353#1 447556677#0 287208894#0 287208894#1 287208894#1-AddedOffRampEdge 573113634"/>
    </vehicle>
    <vehicle id="41" depart="12.00">
        <route edges="28258942#3 -246573569#5 -246573569#1 -59868466#2 -59868466#1 -59868466#0 257224673#10 257224673#11 333403963 334971113 334971114 333403965 333403964 28358444 463727055#1 463727055#2 254489533#0 254489533#2 254489533#3 142321460#0 142321460#1 142321460#3 142321460#4 334797268#0 142321459#1 142321459#3 142321459#4"/>
    </vehicle>
    <vehicle id="42" depart="12.00">
        <route edges="263309131#1 -335513827 245284593#2 245284593#4 59140296#1 59140296#2 258248751#5 -266581123 763969648#1 337335336 337335336-AddedOffRampEdge 792883451"/>
    </vehicle>
    <vehicle id="43" depart="12.00">
        <route edges="463727052#5 28358446 334281568#0 334281568#2 334281568#3 334281570 333403953 334281569 334281571 59140300#0 266957160#0 266957160#1 266957160#2 266957160#8 266957160#9 266957160#10 266957160#11 266957160#15 142321460#0 142321460#1 142321460#3 142321460#4 334797268#0 142321459#1 142321459#3 142321459#4 142321459#5 447556655 263770042 763969648#0 763969648#1 763969658 763969653-AddedOnRampEdge 763969653 550170014 267404280"/>
    </vehicle>
    <vehicle id="44" depart="13.00">
        <route edges="246573543 40541062#4 446811235#1 333403960#0 447556678#1 447556678#2 28258957 263770589 333403954 263739440#0 263739440#0-AddedOffRampEdge 970676839 263739438#1-AddedOnRampEdge 263739438#1 263739438#2 768088169#1 768088169#2"/>
    </vehicle>
    <vehicle id="45" depart="13.00">
        <route edges="333418725 334283253#0 334283253#1 334283253#2 290629750 334283251 266795179#1 266795179#2 266795179#3 266795179#4 266795179#5 266795179#6 266795179#7 266795179#8 266795179#9 266795179#10 266795179#11 28484384#1 28484384#3 28484384#4 28484384#6 28484384#8 28484384#9 333403964 334971115 334971116 28296475#0 28296475#1"/>
    </vehicle>
    <vehicle id="46" depart="13.00">
        <route edges="768088159 457984363 457984363-AddedOffRampEdge 266957515#1 447556683#2 447556682 334971121#1 254607359 142324650 254607358#0 254607358#1 142321460#0 142321460#1 142321460#3 142321460#4 334797268#0 40541063#1 40541063#3 40541063#4 40541063#5 40541063#6 337129682#0 59140294#0 59140294#2 -28258956#2 -28258956#1 -28258956#0"/>
    </vehicle>
    <vehicle id="47" depart="13.00">
        <route edges="334281912#1 266581134 763969636#0 333404260#1 263770108 333404261#0 258081763#1 263309131#0 263309131#1 263309131#2 263309131#3 263309131#4 28484384#1 28484384#3 28484384#4 28484384#6 28484384#8 28484384#9 333403964 28358444 463727055#1 463727055#2 254489533#0 254489533#2 254489533#3 337335333#0"/>
    </vehicle>
    <vehicle id="48" depart="13.00">
        <route edges="-447556690 335527357#3 258742307#5 258742298 447556687#0 277672363#1 277672363#2 277672363#3 277672363#5 277672363#6 277672363#7 257224673#7 257224673#8 257224673#9 257224673#10 257224673#11 333403963 334971113 334971114 333403965 333403964 28358444 463727055#1 463727055#2 142324640#1 142324640#2 -59140345#6 59140345#5"/>
    </vehicle>
    <vehicle id="49" depart="13.00">
        <route edges="334281912#1 266581134 763969636#0 333404260#1 263770108 333404261#0 258081763#1 263309131#0 263309131#1 263309131#2 263309131#3 263309131#4 28484384#1 28484384#3 28484384#4 28484384#6 28484384#8 28484384#9 333403964 28358444 463727055#1 463727055#2 254489533#0 254489533#2 254489533#3 337335333#0 337335333#1 337335333#2 334971117#0"/>
    </vehicle>
    <vehicle id="50" depart="14.00">
        <route edges="446811776 266577945#6 266577945#7 335518637#0 290629741#3 290629741#4 335527357#0-AddedOnRampEdge 335527357#0 335527357#3 335527357#8 335518664#1 335518664#3 295967308#0 295967308#0-AddedOffRampEdge 295967308#1 295967308#2 335527353#0 335527353#1 447556677#0 447556677#1 447556677#2 334971109#0 334971109#1 28258941#0 28258941#1 277666483#0 277666483#2 181355868#0"/>
    </vehicle>
    <vehicle id="52" depart="15.00">
        <route edges="142321458#0 142321458#2 142321458#4 142321458#5 337335331#0 337335331#2 337335331#4 254489534 334971116 28296475#0 28296475#1 28296475#6 28296475#8 28296475#8-AddedOffRampEdge 28296475#9 28296475#10 28296475#11 -242758175#1 242758174#1"/>
    </vehicle>
    <vehicle id="53" depart="15.00">
        <route edges="573113634 573113635 287208894#3 287208890#1-AddedOnRampEdge 287208890#1 290629749#0 290629749#2 290629749#3 258081766 334283251 266795179#1 266795179#2 266795179#3 266795179#4 266795179#5 266795179#6 266795179#7 266795179#8 266795179#9 266795179#10 266795179#11 463727056#0 463727056#1 59140337#0 40541063#6"/>
    </vehicle>
    <vehicle id="54" depart="16.00">
        <route edges="550169268#1 550169269 550169272 550169271#0 259323322#0 550169273#3 259323323#0 28461931#1 28461931#2 335518636#0 335518636#0-AddedOffRampEdge 290629741#0 290629741#0-AddedOffRampEdge 290629741#2 290629741#3 290629741#4 335527357#0-AddedOnRampEdge 335527357#0 335527357#3 258742307#5 258742298 447556687#0 277672363#1 277672363#2 277672363#3 277672363#5 246573564#1"/>
    </vehicle>
    <vehicle id="55" depart="16.00">
        <route edges="-40541074#9 59140287#4 59140287#6 295788345#0 295788345#2 337335331#4 254489534 334971116 28296475#0 28296475#1 48795850#1 48795850#2 48795850#3 48795850#4 48795850#5 48795850#7 48795850#8 -40541061#0"/>
    </vehicle>
    <vehicle id="56" depart="16.00">
        <route edges="334797267 334281568#0 334281568#2 334281568#3 334281570 333403953 263739438#0 263739438#1-AddedOnRampEdge 263739438#1 263739438#2 768088169#1 768088169#2 768088169#3 768088180 550169273#0 550169273#3 259323323#0 28461931#1 28461931#2 335518636#0 335518636#0-AddedOffRampEdge 290629741#0 290629741#0-AddedOffRampEdge 290629741#2 290629741#3 290629741#4 335527357#0-AddedOnRampEdge 335527357#0 335527357#3 335527357#8 335518664#1 335518664#3 295967308#0 295967308#0-AddedOffRampEdge 295967308#1 295967308#2 335527353#0 335527353#1 447556677#0 447556677#1"/>
    </vehicle>
    <vehicle id="57" depart="16.00">
        <route edges="334971122#1-AddedOnRampEdge 334971122#1 334971122#1-AddedOffRampEdge 258248022#0 295968700#0 266581121#0 457307898#0 457307898#1 334797274#0 334797274#1 142321458#0 142321458#2 142321458#4 457307900#0 242757827#1"/>
    </vehicle>
    <vehicle id="58" depart="17.00">
        <route edges="266577945#6 266577945#7 335518637#0 290629741#3 290629741#4 335527357#0-AddedOnRampEdge 335527357#0 335527357#3 28258007#4 245402047#3"/>
    </vehicle>
    <vehicle id="59" depart="17.00">
        <route edges="457984513#0 457984513#4 290629742#0 335518638 266577945#1 266577945#2 266577945#3 266577945#4 266577945#5 266577945#6 266577945#7 290629743#0 550169272 550169271#0 259323322#0 550169273#3 259323323#0 28461931#1 28461931#2 335518636#0 335518636#0-AddedOffRampEdge"/>
    </vehicle>
    <vehicle id="60" depart="17.00">
        <route edges="457307898#0 457307898#1 334797274#0 334797274#1 142321458#0 142321458#2 142321458#4 142321458#5 337335331#0 337335331#2 337335331#4 254489534 334971116 28296475#0 28296475#1 48795850#1 48795850#2 48795850#3 48795850#4 48795850#5 48795850#7 48795850#8 48795850#9 447556685 447556686 277672360 28258007#0 457984513#4 290629742#0"/>
    </vehicle>
    <vehicle id="61" depart="17.00">
        <route edges="-267404269#2 457983490#1 457983490#2 457983491 763969664#1-AddedOnRampEdge 763969664#1 768088166 768088177#0-AddedOnRampEdge 768088177#0 768088177#0-AddedOffRampEdge 263776787#0 263776787#1-AddedOnRampEdge 263776787#1 266957524 335523978#0 447556683#1 447556683#2 447556682 334971121#1 334971118#0 334971117#0 59140338"/>
    </vehicle>
    <vehicle id="62" depart="18.00">
        <route edges="-457307902#1 457307902#1 -59140295#3 -59140295#2 28358447#3 28358447#4 142321458#0 142321458#2 142321458#4 142321458#5 337335331#0 337335331#2 254489533#0 254489533#2 254489533#3"/>
    </vehicle>
    <vehicle id="63" depart="18.00">
        <route edges="181355868#8 181355868#10 181355868#11 -55682683#5 -55682683#3 -55682683#1 28484384#3 28484384#4 28484384#6 28484384#8 28484384#9 333403964 28358444 463727055#1 39820414#0 -39820414#0"/>
    </vehicle>
    <vehicle id="64" depart="19.00">
        <route edges="763969632#0 763969632#1 763969632#2 763969668#0 763969668#1-AddedOnRampEdge 763969668#1 763969643#0 763969643#1-AddedOnRampEdge 763969643#1 335525202 263770043 -142320581#3 -142320581#2 -142320581#1 59140306#0"/>
    </vehicle>
    <vehicle id="65" depart="19.00">
        <route edges="457035236#0 -457035236#1 -59868452#2 266957160#11 266957160#15 142321460#0 142321460#1 -457983493#1 -457983493#0 -245283774#3 258248018#0"/>
    </vehicle>
    <vehicle id="66" depart="19.00">
        <route edges="463727056#0 337129682#1 28484384#1 28484384#3 28484384#4 28484384#6 28484384#8 28484384#9 333403964 334971115 334971116 28296475#0 28296475#1 28296475#6 28296475#8 28296475#8-AddedOffRampEdge 28296475#9 -783999519#3 -783999519#2 -783999519#1 -246573542#7 -246573542#5 -246573542#4 -246573542#2 -40541062#2"/>
    </vehicle>
    <vehicle id="67" depart="20.00">
        <route edges="550169268#1 550169269 550169272 550169271#0 259323322#0 335518635#0 447554166 333403954 263739440#0 263739440#0-AddedOffRampEdge 263739440#1 334281571 59140300#0 266957160#0 277555003#0"/>
    </vehicle>
    <vehicle id="68" depart="20.00">
        <route edges="-245283774#0 245283774#0 245283774#1 245283774#2 245283774#3 -59140307#2 142324650 254607358#0 254607358#1 337335331#0 337335331#2 337335331#4 254489534 334971116 28296475#0 28296475#1 28296475#6 28296475#8 28296475#8-AddedOffRampEdge 28296475#9 28296475#10 -59868448#1"/>
    </vehicle>
    <vehicle id="69" depart="20.00">
        <route edges="335518636#0 335518636#0-AddedOffRampEdge 290629741#0 290629741#0-AddedOffRampEdge 290629741#2 290629741#3 295967307#2 335518638 266577945#1 266577945#2 258742300#0 258742300#1 783999519#0 783999519#2 783999519#3 -59868404#4 -59868404#3 -516364636#6 -516364636#2 -516364636#1 -516364636#0 59140333#1 59140333#2 59140333#3 59140333#4 59140333#5 463727050-AddedOnRampEdge 463727050 181355867 263773395#1-AddedOnRampEdge"/>
    </vehicle>
    <vehicle id="70" depart="21.00">
        <route edges="768088171 457984364 263773392#1-AddedOnRampEdge 263773392#1 267161908 369790063#1 369790063#2 369790063#4 516364636#0 516364636#1 516364636#2 516364636#3 59868404#0 59868404#4 -783999519#3 -783999519#2 -783999519#1 -246573542#7 -246573542#5 59868408#0 59868408#2 -59868408#2"/>
    </vehicle>
    <vehicle id="71" depart="21.00">
        <route edges="-39820421#1 -39820421#0 142324640#2 59868470#1 59868470#2 254489533#0 254489533#2 254489533#3 142321461#1 142321461#2 142321461#6 142321461#7 266957160#8 266957160#9"/>
    </vehicle>
    <vehicle id="72" depart="22.00">
        <route edges="40541065#0 40541065#2 40541065#3 257224673#7 257224673#8 257224673#9 257224673#10 257224673#11 333403963 334971113 334971114 969449155#0 969449155#1 457307901#1 457307901#2 28461934#0 -142320595"/>
    </vehicle>
    <vehicle id="73" depart="22.00">
        <route edges="335527355 333418727 287208890#0 287208890#1-AddedOnRampEdge 287208890#1 290629749#0 456114496 -28461934#2 -28461934#0 258081769#0 258081769#1"/>
    </vehicle>
    <vehicle id="74" depart="23.00">
        <route edges="264116891#1 457984365#0-AddedOnRampEdge 457984365#0 457984365#1 263739437#0 263739437#0-AddedOffRampEdge 263739437#1 334281568#3 334281570 333403953 334281569 334281571 59140300#0 266957160#0 266957160#1 266957160#2 266957160#8 266957160#9 266957160#10 266957160#11 266957160#15 142321460#0 142321460#1 142321460#3 142321460#4 334797268#0 142321459#1 142321459#3 142321459#4 142321459#5 447556655 263770042 763969648#0 763969648#1"/>
    </vehicle>
    <vehicle id="75" depart="24.00">
        <route edges="245402049#2 59140353#1 59140353#2 456114496 -28461934#2 -28461934#0 258081769#0 258081769#1 28484384#8 28484384#9 333403964 28358444 463727055#1 463727055#2 254489533#0 254489533#2 254489533#3 142321461#1 142321461#2 266957160#11"/>
    </vehicle>
    <vehicle id="76" depart="24.00">
        <route edges="277672363#1 277672363#2 277672363#3 277672363#5 277672363#6 277672363#7 28296475#6 28296475#8 28296475#8-AddedOffRampEdge 456638573#0 59868404#4"/>
    </vehicle>
    <vehicle id="77" depart="25.00">
        <route edges="-28258956#2 28258956#2 28258956#3 337129679#1 337129679#2 337129679#3 59140295#0 142321459#4 28358447#2"/>
    </vehicle>
    <vehicle id="78" depart="25.00">
        <route edges="-59868447#1 59868447#1 334281912#1 266581134 763969636#0 333404260#1 263770108 333404261#0 59140296#0 -245284593#4"/>
    </vehicle>
    <vehicle id="79" depart="25.00">
        <route edges="277672363#3 277672363#5 277672363#6 277672363#7 257224673#7 257224673#8 257224673#9 257224673#10 257224673#11 333403963 334971113 334971114 333403965 333403964 28358444 463727055#1 463727055#2 254489533#0 254489533#2 254489533#3 142321461#1 59140298 59140305#0 59140292"/>
    </vehicle>
    <vehicle id="80" depart="25.00">
        <route edges="263859123#1 290629745#0 335527357#0-AddedOnRampEdge 335527357#0 335527357#3 258742307#5 258742298 447556687#0 277672363#1 277672363#2 277672363#3 277672363#5 277672363#6 277672363#7 257224673#7 257224673#8 257224673#9 257224673#10 257224673#11 333403963 334971113 334971114 333403965 333403964 28358444 463727055#1 463727055#2 254489533#0 254489533#2 254489533#3 337335333#0 337335333#1 337335333#2 334971117#0 334971117#1 263776585#0 263776585#1 266957521#1-AddedOnRampEdge 266957521#1 334971122#1-AddedOnRampEdge"/>
    </vehicle>
    <vehicle id="81" depart="26.00">
        <route edges="382975415#0 -382975415#4 -382975421 382975417#1 382975417#2 382975417#3 335518631#2 263770802 335518635#0 447554166 333403954 263739440#0 263739440#0-AddedOffRampEdge 263739440#1 334281571 334797267 334281568#0 28276810#0 28276810#1-AddedOnRampEdge"/>
    </vehicle>
    <vehicle id="82" depart="26.00">
        <route edges="335525201#0-AddedOffRampEdge 457983475 457983475-AddedOffRampEdge 264110609#0 235000070#1 457983490#0 457983490#1 763969632#2 763969668#0 763969668#1-AddedOnRampEdge 763969668#1 763969643#0 763969643#1-AddedOnRampEdge 763969643#1 335525202 263770043 28358447#0 28358447#1 28358447#2 28358447#3 28358447#4 142321458#0 142321458#2 142321458#4 142321458#5 142321460#0 59140345#0 59140345#1 59140345#2 -181454361"/>
    </vehicle>
    <vehicle id="83" depart="26.00">
        <route edges="266581130#0 763969636#0 333404260#1 263770108 333404261#0 258081763#1 263309131#0 263309131#1 263309131#2 263309131#3 263309131#4 28484384#1 28484384#3 28484384#4 28484384#6 28484384#8 28484384#9 333403964 334971115 334971116 28296475#0 28296475#1 28296475#6 28296475#8 28296475#8-AddedOffRampEdge 28296475#9 -59868404#4"/>
    </vehicle>
    <vehicle id="84" depart="26.00">
        <route edges="181355868#8 181355868#10 181355868#11 -55682683#5 -55682683#3 -55682683#1 59128886#0 59128886#1 59140301#0 59140301#4 59140301#7 59140301#8 59140301#10 59140301#11 59140297#0 59140297#1 59140297#2 457308489#0 59140317#0 59140317#1 59140288#2"/>
    </vehicle>
    <vehicle id="85" depart="28.00">
        <route edges="181355868#10 181355868#11 -55682683#5 -55682683#3 -55682683#1 28484384#3 28484384#4 28484384#6 28484384#8 28484384#9 333403964 334971115 334971116 28296475#0 28296475#1 28296475#6 28296475#8 28296475#8-AddedOffRampEdge 28296475#9 -783999519#3 -783999519#2 -783999519#1 972635870#0 972635870#1 266577945#4 266577945#5 266577945#6 266577945#7 290629743#0 550169272 550169271#0 259323322#0 550169273#3 259323323#0 28461931#1 28461931#2 335518636#0 335518636#0-AddedOffRampEdge"/>
    </vehicle>
    <vehicle id="86" depart="28.00">
        <route edges="-277555004#10 -59868471#1 246438224#0 246438225"/>
    </vehicle>
    <vehicle id="87" depart="28.00">
        <route edges="254489534 334971116 333403966 333403963 334971113 334971114 969449155#0 969449155#1 457307901#1 457307901#2 28461934#0 28461934#1 456114495 550169262#0 334283252#4 550169266#0-AddedOnRampEdge 550169266#0 287208893#0 287208893#1"/>
    </vehicle>
    <vehicle id="88" depart="28.00">
        <route edges="142321461#2 142321461#6 142321461#7 463727052#1 463727052#2 463727052#4 463727052#5 28358446 334281568#0 334281568#2 334281568#3 334281570 333403953 263739438#0 263739438#1-AddedOnRampEdge 263739438#1 263739438#2 768088169#1 768088169#2 768088169#3 768088180 550169273#0 550169273#3 259323323#0 28461931#1 382975415#0 -382975415#4 -382975421 382975417#1 382975417#2 382975417#3"/>
    </vehicle>
    <vehicle id="89" depart="29.00">